data/case_ACTIVSg10k.m
function mpc = case_ACTIVSg10k
%CASE_ACTIVSG10K  Synthetic US WECC 10,000-bus power system model.
%
%   This is an entirely synthetic 10,000 bus case, geographically situated
%   in US portion of the WECC system. The case is designed with
%   a transmission network ranging from 1kV up to 765kV to serve
%   a load that roughly mimics the actual population of its geographic
%   footprint. The synthetic transmission system was designed by
%   algorithms described in [1] to be statistically similar to actual
%   transmission system models but without modeling any actual lines.
%
%   When publishing results based on this data, please cite:
%
%   [1] A.B. Birchfield, T. Xu, K.M. Gegner, K.S. Shetye, T.J. Overbye,
%       "Grid Structural Characteristics as Validation Criteria for
%       Synthetic Networks," IEEE Transactions on Power Systems, 2017.
%
%   This is a synthetic power system model that does not represent the
%   actual grid. It was developed as part of the US ARPA-E GRID DATA
%   research project and contains no CEII.
%
%   One-line diagrams and other data formats available at:
%       https://electricgrids.engr.tamu.edu
%
%   October 24, 2017

%   Created from ACTIVSg10k.pwb, saved by
%   PowerWorld Simulator, version 20, build date September 14, 2017,
%   then by MATPOWER 6.

%   MATPOWER
%   Copyright (c) 2017 by A.B. Birchfield, T. Xu, K.M. Gegner, K.S. Shetye,
%   and T.J. Overbye
%   Licensed under the Creative Commons Attribution 4.0 International license,
%   http://creativecommons.org/licenses/by/4.0/

%% MATPOWER Case Format : Version 2
mpc.version = '2';

%%-----  Power Flow Data  -----%%
%% system MVA base
mpc.baseMVA = 100;

%% bus data
%	bus_i	type	Pd	Qd	Gs	Bs	area	Vm	Va	baseKV	zone	Vmax	Vmin	lam_P	lam_Q	mu_Vmax	mu_Vmin
mpc.bus = [
	10001	1	9.64	2.54	0	0	1	1.0116751	-39.151687	138	1	1.1	0.9	20.7700	0.2800	0.0000	0.0000;
	10002	1	15.98	6.04	0	0	1	1.0170598	-36.352523	138	1	1.1	0.9	20.4700	0.2900	0.0000	0.0000;
	10003	1	14.39	1.09	0	0	1	1.0314826	-33.349109	138	1	1.1	0.9	20.0800	0.2600	0.0000	0.0000;
	10004	1	0	0	0	0	1	1.0324917	-33.23623	138	1	1.1	0.9	20.0600	0.2600	0.0000	0.0000;
	10005	1	10.45	2.75	0	0	1	1.0324401	-33.242518	138	1	1.1	0.9	20.0600	0.2600	0.0000	0.0000;
	10006	1	13.44	1.28	0	0	1	1.0256179	-35.064154	138	1	1.1	0.9	20.3300	0.1300	0.0000	0.0000;
	10007	1	0	0	0	0	1	1.0256677	-35.05602	138	1	1.1	0.9	20.3300	0.1300	0.0000	0.0000;
	10008	1	0	0	0	0	1	1.0243324	-33.988174	138	1	1.1	0.9	20.2500	0.1200	0.0000	0.0000;
	10009	1	16.82	2.59	0	0	1	1.0242672	-33.997447	138	1	1.1	0.9	20.2500	0.1200	0.0000	0.0000;
	10010	1	33.49	15.14	0	0	1	1.023053	-34.155623	138	1	1.1	0.9	20.1800	0.2900	0.0000	0.0000;
	10011	1	32.02	8.17	0	0	1	1.0074177	-39.911013	138	1	1.1	0.9	20.7700	0.2900	0.0000	0.0000;
	10012	1	0	0	0	0	1	1.0354652	-31.57542	345	1	1.1	0.9	20.0400	0.2200	0.0000	0.0000;
	10013	1	57.79	30.06	0	0	1	1.028222	-33.636861	138	1	1.1	0.9	20.0700	0.2600	0.0000	0.0000;
	10014	1	0	0	0	0	1	1.0257209	-33.950938	138	1	1.1	0.9	20.1300	0.2700	0.0000	0.0000;
	10015	1	25.01	11.8	0	0	1	1.0255296	-33.964042	138	1	1.1	0.9	20.1300	0.2700	0.0000	0.0000;
	10016	1	0	0	0	0	1	1.0266297	-31.528216	138	1	1.1	0.9	20.0300	0.0900	0.0000	0.0000;
	10017	1	25.89	7.16	0	0	1	1.0264861	-31.543458	138	1	1.1	0.9	20.0300	0.0900	0.0000	0.0000;
	10018	1	24.47	6.19	0	0	1	1.0321229	-34.679719	138	1	1.1	0.9	20.2100	0.2700	0.0000	0.0000;
	10019	1	0	0	0	0	1	1.0386245	-35.848718	345	1	1.1	0.9	20.3900	0.2300	0.0000	0.0000;
	10020	1	53.35	4.54	0	32	1	1.016348	-38.381792	138	1	1.1	0.9	20.4800	0.2600	0.0000	0.0000;
	10021	1	8.99	2.13	0	0	1	1.027133	-31.144146	138	1	1.1	0.9	19.9100	0.1100	0.0000	0.0000;
	10022	1	48.19	15.92	0	0	1	1.0405713	-35.001265	138	1	1.1	0.9	20.2200	0.2400	0.0000	0.0000;
	10023	1	0	0	0	0	1	1.0324275	-32.542008	345	1	1.1	0.9	20.1200	0.2300	0.0000	0.0000;
	10024	1	43.96	8.97	0	0	1	1.0440111	-34.922306	138	1	1.1	0.9	20.1900	0.2200	0.0000	0.0000;
	10025	1	30.89	12.76	0	0	1	1.0333376	-32.024094	138	1	1.1	0.9	19.9200	0.1100	0.0000	0.0000;
	10026	1	18.65	4.97	0	0	1	1.0117007	-40.355069	138	1	1.1	0.9	20.4000	0.1800	0.0000	0.0000;
	10027	1	0	0	0	0	1	1.0039261	-40.377674	138	1	1.1	0.9	20.8000	0.3300	0.0000	0.0000;
	10028	1	32.23	12.72	0	0	1	1.0037162	-40.394673	138	1	1.1	0.9	20.8100	0.3300	0.0000	0.0000;
	10029	1	32.23	1.85	0	0	1	1.0089762	-39.761744	138	1	1.1	0.9	20.6800	0.3000	0.0000	0.0000;
	10030	1	0	0	0	0	1	1.0372651	-34.362037	138	1	1.1	0.9	20.1700	0.2500	0.0000	0.0000;
	10031	1	39.8	7.18	0	0	1	1.0370986	-34.383376	138	1	1.1	0.9	20.1800	0.2500	0.0000	0.0000;
	10032	1	41.5	5.68	0	0	1	1.0307845	-35.42653	138	1	1.1	0.9	20.2900	0.2700	0.0000	0.0000;
	10033	1	59.05	6.96	0	0	1	1.0168694	-31.814297	138	1	1.1	0.9	19.9400	0.1700	0.0000	0.0000;
	10034	1	0	0	0	0	1	1.0157076	-31.681289	138	1	1.1	0.9	19.9200	0.1800	0.0000	0.0000;
	10035	1	59.05	42.65	0	0	1	1.0151611	-31.710046	138	1	1.1	0.9	19.9300	0.1800	0.0000	0.0000;
	10036	1	0	0	0	0	1	1.0163501	-31.648324	138	1	1.1	0.9	19.9200	0.1700	0.0000	0.0000;
	10037	1	58.29	11.32	0	0	1	1.0338076	-31.390044	138	1	1.1	0.9	19.9300	0.0900	0.0000	0.0000;
	10038	1	36.59	13.17	0	0	1	1.0357074	-35.709393	138	1	1.1	0.9	20.3300	0.2600	0.0000	0.0000;
	10039	1	0	0	0	0	1	1.0359431	-35.69012	138	1	1.1	0.9	20.3300	0.2600	0.0000	0.0000;
	10040	1	43.57	13.69	0	0	1	1.0302719	-36.393106	138	1	1.1	0.9	20.4000	0.2800	0.0000	0.0000;
	10041	1	20.08	9.93	0	0	1	1.0323317	-30.633364	138	1	1.1	0.9	19.8700	0.0900	0.0000	0.0000;
	10042	1	59.25	11.36	0	0	1	1.0328987	-32.495159	138	1	1.1	0.9	19.9700	0.1300	0.0000	0.0000;
	10043	1	0	0	0	0	1	1.0218367	-38.118001	138	1	1.1	0.9	20.5500	0.3000	0.0000	0.0000;
	10044	1	37.54	1.74	0	0	1	1.0217305	-38.141811	138	1	1.1	0.9	20.5500	0.3000	0.0000	0.0000;
	10045	1	25.35	12.91	0	0	1	1.022795	-31.427266	138	1	1.1	0.9	19.9300	0.1300	0.0000	0.0000;
	10046	1	0	0	0	0	1	1.022295	-33.816459	138	1	1.1	0.9	20.1600	0.1700	0.0000	0.0000;
	10047	1	45.76	5.94	0	0	1	1.0221374	-33.84105	138	1	1.1	0.9	20.1600	0.1700	0.0000	0.0000;
	10048	1	45.76	10.24	0	0	1	1.0226442	-33.790948	138	1	1.1	0.9	20.1500	0.1700	0.0000	0.0000;
	10049	1	0	0	0	0	1	1.0228542	-33.765842	138	1	1.1	0.9	20.1500	0.1700	0.0000	0.0000;
	10050	1	0	0	0	0	1	1.0226442	-33.790948	138	1	1.1	0.9	20.1500	0.1700	0.0000	0.0000;
	10051	1	0	0	0	0	1	1.0136682	-40.097188	138	1	1.1	0.9	20.3700	0.1800	0.0000	0.0000;
	10052	1	17.51	1.94	0	0	1	1.0136001	-40.108148	138	1	1.1	0.9	20.3700	0.1800	0.0000	0.0000;
	10053	1	43.68	4.56	0	0	1	1.0269097	-32.981566	138	1	1.1	0.9	20.1200	0.1300	0.0000	0.0000;
	10054	1	43.32	16.13	0	0	1	1.0046841	-40.363035	138	1	1.1	0.9	20.8300	0.3400	0.0000	0.0000;
	10055	1	17.57	5.16	0	0	1	1.0267378	-34.047552	138	1	1.1	0.9	20.1400	0.1600	0.0000	0.0000;
	10056	1	0	0	0	0	1	1.02684	-34.038693	138	1	1.1	0.9	20.1400	0.1600	0.0000	0.0000;
	10057	1	0	0	0	0	1	1.0309703	-31.608582	345	1	1.1	0.9	20.0700	0.1700	0.0000	0.0000;
	10058	1	43.93	8.14	0	0	1	1.0223204	-33.975114	138	1	1.1	0.9	20.1300	0.2000	0.0000	0.0000;
	10059	1	0	0	0	0	1	1.0317377	-31.512652	345	1	1.1	0.9	20.0600	0.1700	0.0000	0.0000;
	10060	1	43.93	27.62	0	0	1	1.0200651	-34.059301	138	1	1.1	0.9	20.1600	0.2000	0.0000	0.0000;
	10061	1	51.07	18.71	0	22	1	1.0261608	-37.381453	138	1	1.1	0.9	20.5300	0.2800	0.0000	0.0000;
	10062	1	0	0	0	0	1	1.0206403	-39.176057	138	1	1.1	0.9	20.6600	0.3000	0.0000	0.0000;
	10063	1	0	0	0	0	1	1.0208234	-39.156953	138	1	1.1	0.9	20.6500	0.3000	0.0000	0.0000;
	10064	1	36.24	9.3	0	0	1	1.020444	-39.197215	138	1	1.1	0.9	20.6600	0.3000	0.0000	0.0000;
	10065	1	46.26	6.82	0	0	1	1.0198179	-39.009491	138	1	1.1	0.9	20.6400	0.3000	0.0000	0.0000;
	10066	1	0	0	0	0	1	1.0198179	-39.009491	13.8	1	1.1	0.9	20.6400	0.3000	0.0000	0.0000;
	10067	1	0	0	0	0	1	1.0198179	-39.009491	13.8	1	1.1	0.9	20.6400	0.3000	0.0000	0.0000;
	10068	1	0	0	0	0	1	1.0198179	-39.009491	1	1	1.1	0.9	20.6400	0.3000	0.0000	0.0000;
	10069	1	58.86	14.48	0	0	1	1.0127842	-32.268746	138	1	1.1	0.9	20.0200	0.1900	0.0000	0.0000;
	10070	1	11.07	0.16	0	0	1	1.024144	-38.326027	138	1	1.1	0.9	20.5800	0.2800	0.0000	0.0000;
	10071	1	38.37	10.34	0	0	1	1.0258021	-34.311311	138	1	1.1	0.9	20.1700	0.1700	0.0000	0.0000;
	10072	1	0	0	0	0	1	1.0200968	-34.403516	138	1	1.1	0.9	20.1700	0.2100	0.0000	0.0000;
	10073	1	38.37	20.18	0	0	1	1.0197593	-34.42421	138	1	1.1	0.9	20.1800	0.2200	0.0000	0.0000;
	10074	1	0	0	0	0	1	1.0142883	-32.618405	138	1	1.1	0.9	20.0600	0.1900	0.0000	0.0000;
	10075	1	14.72	4.64	0	0	1	1.014205	-32.626806	138	1	1.1	0.9	20.0600	0.1900	0.0000	0.0000;
	10076	1	27.96	2.98	0	0	1	1.0245415	-37.482806	138	1	1.1	0.9	20.5300	0.2800	0.0000	0.0000;
	10077	1	28.46	7.93	0	0	1	1.0263778	-34.116984	138	1	1.1	0.9	20.1900	0.2400	0.0000	0.0000;
	10078	1	0	0	0	0	1	1.0324232	-33.611112	345	1	1.1	0.9	20.2500	0.2400	0.0000	0.0000;
	10079	1	55.86	12.51	0	0	1	1.0224165	-37.499712	138	1	1.1	0.9	20.4100	0.3000	0.0000	0.0000;
	10080	1	0	0	0	0	1	1.0164662	-43.061895	24	1	1.1	0.9	20.6400	0.3500	0.0000	0.0000;
	10081	1	0	0	0	0	1	1.0164662	-43.061895	1	1	1.1	0.9	20.6400	0.3500	0.0000	0.0000;
	10082	1	0	0	0	0	1	1.0202082	-38.366443	138	1	1.1	0.9	20.5500	0.3000	0.0000	0.0000;
	10083	1	22.32	8.77	0	0	1	1.0200555	-38.378147	138	1	1.1	0.9	20.5500	0.3000	0.0000	0.0000;
	10084	1	0	0	0	0	1	1.0299655	-37.423046	138	1	1.1	0.9	19.9100	0.1200	0.0000	0.0000;
	10085	1	40.86	5.87	0	0	1	1.0298085	-37.448352	138	1	1.1	0.9	19.9100	0.1200	0.0000	0.0000;
	10086	1	0	0	0	0	1	1.0301051	-37.401518	138	1	1.1	0.9	19.9000	0.1200	0.0000	0.0000;
	10087	1	10.87	8.58	0	0	1	1.0159717	-39.142802	138	1	1.1	0.9	20.6900	0.2800	0.0000	0.0000;
	10088	1	0	0	0	0	1	1.0294095	-38.679634	138	1	1.1	0.9	20.5600	0.2600	0.0000	0.0000;
	10089	1	33.23	4.19	0	0	1	1.0292817	-38.699245	138	1	1.1	0.9	20.5700	0.2600	0.0000	0.0000;
	10090	1	33.23	6.75	0	0	1	1.023937	-38.751584	138	1	1.1	0.9	20.6000	0.2900	0.0000	0.0000;
	10091	1	37.67	4.7	0	0	1	1.0257642	-32.974549	138	1	1.1	0.9	20.0500	0.2200	0.0000	0.0000;
	10092	1	31.46	1.7	0	0	1	1.0252348	-34.225212	138	1	1.1	0.9	20.2100	0.2500	0.0000	0.0000;
	10093	1	31.46	11.16	0	0	1	1.0242213	-34.95906	138	1	1.1	0.9	20.2700	0.2500	0.0000	0.0000;
	10094	1	0	0	0	0	1	1.0245745	-37.67564	138	1	1.1	0.9	20.5300	0.2800	0.0000	0.0000;
	10095	1	0	0	0	0	1	1.0246607	-37.665724	138	1	1.1	0.9	20.5300	0.2800	0.0000	0.0000;
	10096	1	18.02	4.43	0	0	1	1.0244933	-37.685481	138	1	1.1	0.9	20.5400	0.2800	0.0000	0.0000;
	10097	1	31.02	5.28	0	0	1	1.0267107	-33.487131	138	1	1.1	0.9	20.0900	0.2300	0.0000	0.0000;
	10098	1	19.84	5.6	0	0	1	1.0217204	-34.613294	138	1	1.1	0.9	20.1900	0.2100	0.0000	0.0000;
	10099	1	0	0	0	0	1	1.0218393	-34.601807	138	1	1.1	0.9	20.1900	0.2100	0.0000	0.0000;
	10100	1	0	0	0	0	1	1.0339549	-34.797456	138	1	1.1	0.9	20.2400	0.2400	0.0000	0.0000;
	10101	1	0	0	0	0	1	1.0341101	-34.779422	138	1	1.1	0.9	20.2400	0.2400	0.0000	0.0000;
	10102	1	33.88	8.27	0	0	1	1.033772	-34.817337	138	1	1.1	0.9	20.2400	0.2500	0.0000	0.0000;
	10103	1	0	0	0	0	1	1.0284624	-34.679656	138	1	1.1	0.9	20.2500	0.2700	0.0000	0.0000;
	10104	1	57.74	17.1	0	0	1	1.0281244	-34.709483	138	1	1.1	0.9	20.2600	0.2700	0.0000	0.0000;
	10105	1	0	0	0	0	1	1.0287907	-34.646958	138	1	1.1	0.9	20.2500	0.2700	0.0000	0.0000;
	10106	1	51.34	13.64	0	0	1	1.0192325	-39.058689	138	1	1.1	0.9	20.2000	0.1600	0.0000	0.0000;
	10107	1	26.95	1.82	0	0	1	1.0245948	-36.9484	138	1	1.1	0.9	20.5100	0.2200	0.0000	0.0000;
	10108	1	0	0	0	0	1	1.0246712	-36.93147	138	1	1.1	0.9	20.5100	0.2200	0.0000	0.0000;
	10109	1	0	0	0	0	1	1.0245948	-36.9484	138	1	1.1	0.9	20.5100	0.2200	0.0000	0.0000;
	10110	1	12.48	4.31	0	0	1	1.0311667	-33.114041	138	1	1.1	0.9	20.0200	0.1400	0.0000	0.0000;
	10111	1	0	0	0	0	1	1.0312391	-33.107213	138	1	1.1	0.9	20.0200	0.1400	0.0000	0.0000;
	10112	1	11.2	2.7	0	0	1	1.027805	-33.763836	138	1	1.1	0.9	20.1100	0.1600	0.0000	0.0000;
	10113	1	0	0	0	0	1	1.0259894	-38.296335	138	1	1.1	0.9	20.5300	0.2900	0.0000	0.0000;
	10114	1	31.06	13.53	0	0	1	1.0257738	-38.313609	138	1	1.1	0.9	20.5300	0.2900	0.0000	0.0000;
	10115	1	31.06	11.74	0	0	1	1.0251886	-38.266403	138	1	1.1	0.9	20.5200	0.3000	0.0000	0.0000;
	10116	1	47.94	5.39	0	0	1	1.0362209	-33.10867	138	1	1.1	0.9	20.0300	0.1600	0.0000	0.0000;
	10117	1	0	0	0	0	1	1.0371237	-29.271498	345	1	1.1	0.9	19.9100	0.1100	0.0000	0.0000;
	10118	1	45.39	21.63	0	0	1	1.0361038	-33.135812	138	1	1.1	0.9	20.0200	0.1700	0.0000	0.0000;
	10119	1	0	0	0	0	1	1.0362481	-33.494099	13.8	1	1.1	0.9	20.0300	0.1700	0.0000	0.0000;
	10120	1	0	0	0	0	1	1.0362481	-33.494099	1	1	1.1	0.9	20.0300	0.1700	0.0000	0.0000;
	10121	1	0	0	0	0	1	1.0178147	-38.278378	138	1	1.1	0.9	20.5500	0.3100	0.0000	0.0000;
	10122	1	35.43	19.18	0	0	1	1.017522	-38.298167	138	1	1.1	0.9	20.5500	0.3100	0.0000	0.0000;
	10123	1	0	0	0	0	1	1.0187439	-38.099302	138	1	1.1	0.9	20.5100	0.3100	0.0000	0.0000;
	10124	1	0	0	0	0	1	1.0188952	-38.077575	138	1	1.1	0.9	20.5100	0.3100	0.0000	0.0000;
	10125	1	35.43	7.06	0	0	1	1.0185871	-38.120717	138	1	1.1	0.9	20.5100	0.3100	0.0000	0.0000;
	10126	1	0	0	0	0	1	1.0187439	-38.099302	138	1	1.1	0.9	20.5100	0.3100	0.0000	0.0000;
	10127	1	0	0	0	0	1	1.0194341	-34.092636	345	1	1.1	0.9	20.2800	0.2500	0.0000	0.0000;
	10128	1	44.89	16.27	0	0	1	1.0349536	-37.983968	138	1	1.1	0.9	20.4500	0.2400	0.0000	0.0000;
	10129	1	50.09	14.75	0	0	1	1.0347232	-34.605163	138	1	1.1	0.9	20.2200	0.2500	0.0000	0.0000;
	10130	1	50.09	14.37	0	0	1	1.021258	-34.342221	138	1	1.1	0.9	20.2100	0.2800	0.0000	0.0000;
	10131	1	0	0	0	0	1	1.0288149	-34.61557	138	1	1.1	0.9	20.2400	0.2700	0.0000	0.0000;
	10132	1	41.72	12.38	0	0	1	1.0285755	-34.640007	138	1	1.1	0.9	20.2500	0.2700	0.0000	0.0000;
	10133	1	0	0	0	0	1	1.024297	-37.627052	138	1	1.1	0.9	20.5500	0.2800	0.0000	0.0000;
	10134	1	71.03	8.23	0	0	1	1.0240197	-37.66574	138	1	1.1	0.9	20.5600	0.2800	0.0000	0.0000;
	10135	1	61.01	13.93	0	0	1	1.0312407	-37.204095	138	1	1.1	0.9	19.8600	0.1200	0.0000	0.0000;
	10136	1	0	0	0	0	1	1.0315432	-37.168226	138	1	1.1	0.9	19.8600	0.1200	0.0000	0.0000;
	10137	1	20.07	5.15	0	0	1	1.0259228	-33.326137	138	1	1.1	0.9	20.0800	0.2300	0.0000	0.0000;
	10138	1	38.05	7.43	0	0	1	1.0245592	-38.78191	138	1	1.1	0.9	20.5800	0.2800	0.0000	0.0000;
	10139	1	35	8.78	0	0	1	1.0595303	-35.67552	138	1	1.1	0.9	20.1700	0.1800	0.0000	0.0000;
	10140	1	16.07	5.79	0	0	1	1.0205993	-38.304026	138	1	1.1	0.9	20.5300	0.3100	0.0000	0.0000;
	10141	1	41.11	16.66	0	0	1	1.0203083	-38.327552	138	1	1.1	0.9	20.5300	0.3200	0.0000	0.0000;
	10142	1	41.11	1.31	0	0	1	1.0175322	-38.571431	138	1	1.1	0.9	20.5900	0.3300	0.0000	0.0000;
	10143	1	0	0	0	0	1	1.0176504	-38.545781	138	1	1.1	0.9	20.5800	0.3300	0.0000	0.0000;
	10144	1	0	0	0	0	1	1.0175322	-38.571431	138	1	1.1	0.9	20.5900	0.3300	0.0000	0.0000;
	10145	1	37.97	9.24	0	0	1	1.0192331	-33.767742	138	1	1.1	0.9	20.1600	0.2700	0.0000	0.0000;
	10146	1	37.97	9.3	0	0	1	1.019908	-34.273598	138	1	1.1	0.9	20.2000	0.2900	0.0000	0.0000;
	10147	1	0	0	0	0	1	1.0201011	-34.251018	138	1	1.1	0.9	20.2000	0.2800	0.0000	0.0000;
	10148	1	52.25	24.72	0	0	1	1.0261155	-34.649922	138	1	1.1	0.9	20.2600	0.2700	0.0000	0.0000;
	10149	1	0	0	0	0	1	1.0254752	-38.887581	138	1	1.1	0.9	20.6100	0.2800	0.0000	0.0000;
	10150	1	7.99	4.67	0	0	1	1.0168333	-39.706554	18	1	1.1	0.9	20.6400	0.2900	0.0000	0.0000;
	10151	1	11.73	1.24	0	0	1	1.0218178	-40.033645	18	1	1.1	0.9	20.6500	0.2800	0.0000	0.0000;
	10152	1	0	0	0	0	1	1.0245295	-39.034806	1	1	1.1	0.9	20.6100	0.2800	0.0000	0.0000;
	10153	1	35.35	3.89	0	0	1	1.0241594	-34.824033	138	1	1.1	0.9	20.2200	0.1900	0.0000	0.0000;
	10154	1	33.06	13.11	0	0	1	1.0580414	-35.816279	138	1	1.1	0.9	20.1900	0.1900	0.0000	0.0000;
	10155	1	0	0	0	0	1	1.022132	-34.783094	138	1	1.1	0.9	20.2100	0.2100	0.0000	0.0000;
	10156	1	33.52	4.02	0	0	1	1.0220027	-34.802371	138	1	1.1	0.9	20.2100	0.2100	0.0000	0.0000;
	10157	1	32.33	10.35	0	80	1	1.0366349	-37.996618	138	1	1.1	0.9	20.4600	0.2300	0.0000	0.0000;
	10158	1	0	0	0	0	1	1.0358486	-37.967801	138	1	1.1	0.9	20.4500	0.2400	0.0000	0.0000;
	10159	1	15.22	4.81	0	0	1	1.0291223	-37.927017	138	1	1.1	0.9	20.4500	0.2700	0.0000	0.0000;
	10160	1	55.26	20.75	0	0	1	1.0144071	-38.434742	138	1	1.1	0.9	20.6000	0.3500	0.0000	0.0000;
	10161	1	0	0	0	0	1	1.0221416	-40.767706	138	1	1.1	0.9	20.9200	0.2400	0.0000	0.0000;
	10162	1	25.6	5.53	0	0	1	1.0220053	-40.782843	138	1	1.1	0.9	20.9200	0.2400	0.0000	0.0000;
	10163	1	0	0	0	0	1	1.0222669	-40.753496	138	1	1.1	0.9	20.9100	0.2400	0.0000	0.0000;
	10164	1	26.64	6.54	0	0	1	1.0238311	-34.920925	138	1	1.1	0.9	20.2100	0.2000	0.0000	0.0000;
	10165	1	0	0	0	0	1	1.0164146	-39.078748	138	1	1.1	0.9	20.6200	0.3200	0.0000	0.0000;
	10166	1	47.72	5.4	0	0	1	1.0162298	-39.108744	138	1	1.1	0.9	20.6300	0.3200	0.0000	0.0000;
	10167	1	32.36	10.77	0	0	1	1.038223	-34.360241	138	1	1.1	0.9	20.1900	0.2300	0.0000	0.0000;
	10168	1	32.36	10.63	0	0	1	1.0317598	-34.568947	138	1	1.1	0.9	20.2200	0.2600	0.0000	0.0000;
	10169	1	0	0	0	0	1	1.0258998	-35.035526	138	1	1.1	0.9	20.2000	0.2100	0.0000	0.0000;
	10170	1	14.51	0.92	0	0	1	1.0258531	-35.043616	138	1	1.1	0.9	20.2000	0.2100	0.0000	0.0000;
	10171	1	51.86	8.23	0	0	1	1.019048	-37.917822	138	1	1.1	0.9	20.4500	0.3100	0.0000	0.0000;
	10172	1	0	0	0	0	1	1.0228555	-33.305061	138	1	1.1	0.9	20.1200	0.2500	0.0000	0.0000;
	10173	1	0	0	0	0	1	1.0230139	-33.280728	138	1	1.1	0.9	20.1100	0.2500	0.0000	0.0000;
	10174	1	41.08	5.55	0	0	1	1.0226888	-33.331138	138	1	1.1	0.9	20.1200	0.2500	0.0000	0.0000;
	10175	1	41.08	12.71	0	0	1	1.0243887	-32.663955	138	1	1.1	0.9	20.0200	0.2300	0.0000	0.0000;
	10176	1	0	0	0	0	1	1.0246416	-32.639388	138	1	1.1	0.9	20.0200	0.2300	0.0000	0.0000;
	10177	1	37	12.28	0	0	1	1.0388454	-34.130873	138	1	1.1	0.9	20.1600	0.2300	0.0000	0.0000;
	10178	1	37	6.33	0	0	1	1.0233107	-34.445237	138	1	1.1	0.9	20.2300	0.2800	0.0000	0.0000;
	10179	1	55.41	4.59	0	0	1	1.0309986	-37.352057	138	1	1.1	0.9	19.8800	0.1200	0.0000	0.0000;
	10180	1	1.46	0.56	0	0	1	1.0310115	-37.16184	138	1	1.1	0.9	19.8700	0.1100	0.0000	0.0000;
	10181	1	0	0	0	0	1	1.0311843	-37.131428	138	1	1.1	0.9	19.8600	0.1100	0.0000	0.0000;
	10182	1	55.41	4.8	0	0	1	1.0308487	-37.194903	138	1	1.1	0.9	19.8700	0.1100	0.0000	0.0000;
	10183	1	48.59	5.25	0	0	1	1.021504	-37.848507	138	1	1.1	0.9	20.4400	0.3000	0.0000	0.0000;
	10184	1	0	0	0	0	1	1.0391996	-37.655777	138	1	1.1	0.9	20.4000	0.2300	0.0000	0.0000;
	10185	1	68.06	27.25	0	0	1	1.0387082	-37.692825	138	1	1.1	0.9	20.4100	0.2300	0.0000	0.0000;
	10186	1	0	0	0	0	1	1.0296169	-34.790678	138	1	1.1	0.9	20.2500	0.2000	0.0000	0.0000;
	10187	1	37.59	7.22	0	0	1	1.0294381	-34.811402	138	1	1.1	0.9	20.2500	0.2000	0.0000	0.0000;
	10188	1	51.74	17.55	0	0	1	1.0307351	-32.455913	138	1	1.1	0.9	20.0100	0.1600	0.0000	0.0000;
	10189	1	0	0	0	0	1	1.0310659	-32.425562	138	1	1.1	0.9	20.0000	0.1600	0.0000	0.0000;
	10190	1	0	0	0	0	1	1.0200211	-33.564821	138	1	1.1	0.9	20.1500	0.2700	0.0000	0.0000;
	10191	1	63.47	6.05	0	0	1	1.0197703	-33.602938	138	1	1.1	0.9	20.1500	0.2700	0.0000	0.0000;
	10192	1	0	0	0	0	1	1.0098079	-31.267012	345	1	1.1	0.9	20.0400	0.2000	0.0000	0.0000;
	10193	1	63.47	25.63	0	0	1	1.0189333	-33.930111	138	1	1.1	0.9	20.1600	0.2900	0.0000	0.0000;
	10194	1	0	0	0	0	1	1.0189298	-33.929215	24	1	1.1	0.9	20.1600	0.2900	0.0000	0.0000;
	10195	1	0	0	0	0	1	1.0189298	-33.929215	1	1	1.1	0.9	20.1600	0.2900	0.0000	0.0000;
	10196	1	0	0	0	0	1	1.036537	-31.4735	345	1	1.1	0.9	20.0600	0.1900	0.0000	0.0000;
	10197	1	0	0	0	0	1	1.0635804	-35.303599	138	1	1.1	0.9	20.1200	0.1700	0.0000	0.0000;
	10198	1	55.17	29.09	0	0	1	1.036092	-31.500309	345	1	1.1	0.9	20.0600	0.1900	0.0000	0.0000;
	10199	1	25.51	11.27	0	0	1	1.0178308	-39.093285	138	1	1.1	0.9	20.6300	0.3200	0.0000	0.0000;
	10200	1	57.98	19.56	0	0	1	1.0221649	-38.153398	138	1	1.1	0.9	20.4900	0.2900	0.0000	0.0000;
...
];

%% generator data
%	bus	Pg	Qg	Qmax	Qmin	Vg	mBase	status	Pmax	Pmin	Pc1	Pc2	Qc1min	Qc1max	Qc2min	Qc2max	ramp_agc	ramp_10	ramp_30	ramp_q	apf	mu_Pmax	mu_Pmin	mu_Qmax	mu_Qmin
mpc.gen = [
	10683	0	0	61.16	-7.8	1.0464	207.74	0	159.27	52.01	0	0	0	0	0	0	0	0	0	0	159.27	0.0000	0.0000	0.0000	0.0000;
	10684	85.29	58.64	61.16	-7.8	1.0202	201.13	1	85.29	85.29	0	0	0	0	0	0	0	0	0	0	159.2667	0.0000	0.0000	0.0000	0.0000;
	10685	138.65	58.64	61.16	-7.8	1.0203	217.36	1	138.65	138.65	0	0	0	0	0	0	0	0	0	0	159.2667	0.0000	0.0000	0.0000	0.0000;
	10686	0	0	61.16	-7.8	1.0464	214.15	0	159.27	56.04	0	0	0	0	0	0	0	0	0	0	159.2667	0.0000	0.0000	0.0000	0.0000;
	10687	120.63	58.64	61.16	-7.8	1.019	188.08	1	120.63	120.63	0	0	0	0	0	0	0	0	0	0	159.2667	0.0000	0.0000	0.0000	0.0000;
	10688	109.93	58.64	61.16	-7.8	1.0208	201.28	1	109.93	109.93	0	0	0	0	0	0	0	0	0	0	159.2667	0.0000	0.0000	0.0000	0.0000;
	10689	9.02	4.95	4.95	-0.63	1.0014	12.9	1	9.02	9.02	0	0	0	0	0	0	0	0	0	0	12.9	0.0000	0.0000	0.0000	0.0000;
	10691	59.72	21.07	21.07	-14.24	1.0063	98.92	1	59.72	59.72	0	0	0	0	0	0	0	0	0	0	98.9	0.0000	0.0000	0.0000	0.0000;
	10694	23.02	4.17	13.44	-1.71	1.0483	35.08	1	23.02	23.02	0	0	0	0	0	0	0	0	0	0	35	0.0000	0.0000	0.0000	0.0000;
	10695	25.55	4.17	13.44	-1.71	1.0484	41.36	1	25.55	25.55	0	0	0	0	0	0	0	0	0	0	35	0.0000	0.0000	0.0000	0.0000;
	10699	79.42	-14.5	21.45	-14.5	1.0019	120.64	1	79.42	79.42	0	0	0	0	0	0	0	0	0	0	100.7	0.0000	0.0000	0.0000	0.0000;
	10703	136.3	25.71	29.03	-19.63	1.0604	174.64	1	136.3	136.3	0	0	0	0	0	0	0	0	0	0	136.3	0.0000	0.0000	0.0000	0.0000;
	10710	171.16	-10.61	83.17	-10.61	1.0096	238.48	1	171.16	171.16	0	0	0	0	0	0	0	0	0	0	216.6	0.0000	0.0000	0.0000	0.0000;
	10711	189.67	-10.61	83.17	-10.61	1.01	219.83	1	189.67	189.67	0	0	0	0	0	0	0	0	0	0	216.6	0.0000	0.0000	0.0000	0.0000;
	10712	135.95	-10.61	83.17	-10.61	1.0097	219.92	1	135.95	135.95	0	0	0	0	0	0	0	0	0	0	216.6	0.0000	0.0000	0.0000	0.0000;
	10713	189.37	-10.61	83.17	-10.61	1.01	259.93	1	189.37	189.37	0	0	0	0	0	0	0	0	0	0	216.6	0.0000	0.0000	0.0000	0.0000;
	10714	0	0	83.17	-10.61	1.0296	235.85	0	216.6	42.73	0	0	0	0	0	0	0	0	0	0	216.6	0.0000	0.0000	0.0000	0.0000;
	10715	172.43	-10.61	83.17	-10.61	1.0166	279.75	1	172.43	172.43	0	0	0	0	0	0	0	0	0	0	216.6	0.0000	0.0000	0.0000	0.0000;
	10722	0	0	40.28	-5.14	1.0344	131.4	0	104.9	32.78	0	0	0	0	0	0	0	0	0	0	104.9	0.0000	0.0000	0.0000	0.0000;
	10723	82.25	40.28	40.28	-5.14	1.0007	152.84	1	82.25	82.25	0	0	0	0	0	0	0	0	0	0	104.9	0.0000	0.0000	0.0000	0.0000;
	10724	104.9	40.28	40.28	-5.14	1.0018	115.76	1	104.9	104.9	0	0	0	0	0	0	0	0	0	0	104.9	0.0000	0.0000	0.0000	0.0000;
	10725	71.29	40.28	40.28	-5.14	1.0026	116.27	1	71.29	71.29	0	0	0	0	0	0	0	0	0	0	104.9	0.0000	0.0000	0.0000	0.0000;
	10726	71.08	40.28	40.28	-5.14	1.0029	106.56	1	71.08	71.08	0	0	0	0	0	0	0	0	0	0	104.9	0.0000	0.0000	0.0000	0.0000;
	10727	0	0	40.28	-5.14	1.0344	122.59	0	104.9	28.25	0	0	0	0	0	0	0	0	0	0	104.9	0.0000	0.0000	0.0000	0.0000;
	10728	23.81	-1.37	10.73	-1.37	1.0177	32.27	1	23.81	23.81	0	0	0	0	0	0	0	0	0	0	27.95	0.0000	0.0000	0.0000	0.0000;
	10728	0	0	10.73	-1.37	1.0177	35.8	0	27.95	6.98	0	0	0	0	0	0	0	0	0	0	27.95	0.0000	0.0000	0.0000	0.0000;
	10729	0	0	10.73	-1.37	1.0133	27.95	0	27.95	6.03	0	0	0	0	0	0	0	0	0	0	27.95	0.0000	0.0000	0.0000	0.0000;
	10729	20.46	-1.37	10.73	-1.37	1.0133	32.33	1	20.46	20.46	0	0	0	0	0	0	0	0	0	0	27.95	0.0000	0.0000	0.0000	0.0000;
	10731	0	0	6.5	-0.83	1.0172	18.62	0	16.92	5.64	0	0	0	0	0	0	0	0	0	0	16.92	0.0000	0.0000	0.0000	0.0000;
	10731	0	0	6.5	-0.83	1.0172	21.25	0	16.92	6.86	0	0	0	0	0	0	0	0	0	0	16.92	0.0000	0.0000	0.0000	0.0000;
	10731	0	0	6.5	-0.83	1.0172	16.92	0	16.92	3.04	0	0	0	0	0	0	0	0	0	0	16.92	0.0000	0.0000	0.0000	0.0000;
	10731	9.83	-0.83	6.5	-0.83	1.0172	19.89	1	9.83	9.83	0	0	0	0	0	0	0	0	0	0	16.92	0.0000	0.0000	0.0000	0.0000;
	10731	0	0	6.5	-0.83	1.0172	20.51	0	16.92	4.16	0	0	0	0	0	0	0	0	0	0	16.92	0.0000	0.0000	0.0000	0.0000;
	10737	159.15	81.01	81.01	-17.67	1.0343	193.29	1	159.15	72.55	0	0	0	0	0	0	0	0	0	0	159.15	0.0000	0.0000	0.0000	0.0000;
	10738	159.15	81.01	81.01	-17.67	1.0344	195.43	1	159.15	58.54	0	0	0	0	0	0	0	0	0	0	159.15	0.0000	0.0000	0.0000	0.0000;
	10742	80	-3.92	30.72	-3.92	1.0264	96.14	1	80	80	0	0	0	0	0	0	0	0	0	0	80	0.0000	0.0000	0.0000	0.0000;
	10743	0	0	30.72	-3.92	1.0266	93.18	0	80	31.97	0	0	0	0	0	0	0	0	0	0	80	0.0000	0.0000	0.0000	0.0000;
	10744	64.23	-3.92	30.72	-3.92	1.0263	106.35	1	64.23	64.23	0	0	0	0	0	0	0	0	0	0	80	0.0000	0.0000	0.0000	0.0000;
	10746	66.35	-12.96	19.17	-12.96	1.0205	98.26	1	66.35	66.35	0	0	0	0	0	0	0	0	0	0	90	0.0000	0.0000	0.0000	0.0000;
	10750	409.37	-20.06	157.2	-20.06	1.0419	498.65	1	409.37	409.37	0	0	0	0	0	0	0	0	0	0	409.37	0.0000	0.0000	0.0000	0.0000;
	10751	0	0	157.2	-20.06	1.0433	454.46	0	409.37	47.4	0	0	0	0	0	0	0	0	0	0	409.3667	0.0000	0.0000	0.0000	0.0000;
	10752	293.05	-20.06	157.2	-20.06	1.0421	417.45	1	293.05	293.05	0	0	0	0	0	0	0	0	0	0	409.3667	0.0000	0.0000	0.0000	0.0000;
	10753	0	0	157.2	-20.06	1.0433	459.34	0	409.37	49.62	0	0	0	0	0	0	0	0	0	0	409.3667	0.0000	0.0000	0.0000	0.0000;
	10754	323.1	-20.06	157.2	-20.06	1.0417	487.04	1	323.1	323.1	0	0	0	0	0	0	0	0	0	0	409.3667	0.0000	0.0000	0.0000	0.0000;
	10755	333.93	-20.06	157.2	-20.06	1.0413	548.59	1	333.93	333.93	0	0	0	0	0	0	0	0	0	0	409.37	0.0000	0.0000	0.0000	0.0000;
	10757	40.5	-1.98	15.55	-1.98	1.0231	45.68	1	40.5	40.5	0	0	0	0	0	0	0	0	0	0	40.5	0.0000	0.0000	0.0000	0.0000;
	10757	40.5	-1.98	15.55	-1.98	1.0231	47.33	1	40.5	40.5	0	0	0	0	0	0	0	0	0	0	40.5	0.0000	0.0000	0.0000	0.0000;
	10757	28.94	-1.98	15.55	-1.98	1.0231	57.72	1	28.94	28.94	0	0	0	0	0	0	0	0	0	0	40.5	0.0000	0.0000	0.0000	0.0000;
	10757	0	0	15.55	-1.98	1.0231	56.8	0	40.5	9.58	0	0	0	0	0	0	0	0	0	0	40.5	0.0000	0.0000	0.0000	0.0000;
	10758	0	0	21.35	-2.72	1.04	64.74	0	55.6	19.42	0	0	0	0	0	0	0	0	0	0	55.6	0.0000	0.0000	0.0000	0.0000;
	10758	55.6	21.35	21.35	-2.72	1.04	63.99	1	55.6	55.6	0	0	0	0	0	0	0	0	0	0	55.6	0.0000	0.0000	0.0000	0.0000;
	10760	0	0	0	0	1.04	69.12	0	61.5	13.06	0	0	0	0	0	0	0	0	0	0	61.5	0.0000	0.0000	0.0000	0.0000;
	10768	212.51	56.83	56.83	-38.42	1.0304	301.55	1	212.51	212.51	0	0	0	0	0	0	0	0	0	0	266.8	0.0000	0.0000	0.0000	0.0000;
	10771	51.82	19.9	19.9	-2.54	1.0384	72.35	1	51.82	51.82	0	0	0	0	0	0	0	0	0	0	51.825	0.0000	0.0000	0.0000	0.0000;
	10772	41.62	19.9	19.9	-2.54	1.0394	52.68	1	41.62	41.62	0	0	0	0	0	0	0	0	0	0	51.825	0.0000	0.0000	0.0000	0.0000;
	10773	0	0	19.9	-2.54	1.0317	66.71	0	51.82	20.88	0	0	0	0	0	0	0	0	0	0	51.83	0.0000	0.0000	0.0000	0.0000;
	10774	41.38	19.9	19.9	-2.54	1.0373	57.61	1	41.38	41.38	0	0	0	0	0	0	0	0	0	0	51.825	0.0000	0.0000	0.0000	0.0000;
	10776	0	0	0	0	1.0318	32.07	0	28	3.77	0	0	0	0	0	0	0	0	0	0	28	0.0000	0.0000	0.0000	0.0000;
	10776	14.32	0	0	0	1.0318	23.98	1	14.32	14.32	0	0	0	0	0	0	0	0	0	0	20	0.0000	0.0000	0.0000	0.0000;
	10778	8.03	-0.49	3.84	-0.49	1.0192	11.56	1	8.03	8.03	0	0	0	0	0	0	0	0	0	0	10	0.0000	0.0000	0.0000	0.0000;
	10778	14.8	-0.73	5.68	-0.73	1.0192	14.94	1	14.8	14.8	0	0	0	0	0	0	0	0	0	0	14.8	0.0000	0.0000	0.0000	0.0000;
	10782	13.43	0	0	0	1.0162	27.32	1	13.43	13.43	0	0	0	0	0	0	0	0	0	0	18.3333	0.0000	0.0000	0.0000	0.0000;
	10782	14.65	0	0	0	1.0162	18.63	1	14.65	14.65	0	0	0	0	0	0	0	0	0	0	18.3333	0.0000	0.0000	0.0000	0.0000;
	10783	13.24	0	0	0	1.0155	22.11	1	13.24	13.24	0	0	0	0	0	0	0	0	0	0	18.3333	0.0000	0.0000	0.0000	0.0000;
	10784	17.21	0	0	0	1.0192	43.83	1	17.21	17.21	0	0	0	0	0	0	0	0	0	0	39.4	0.0000	0.0000	0.0000	0.0000;
	10784	42.83	0	0	0	1.0192	64.64	1	42.83	42.83	0	0	0	0	0	0	0	0	0	0	58.2	0.0000	0.0000	0.0000	0.0000;
	10785	39.4	0	0	0	1.0192	44.46	1	39.4	39.4	0	0	0	0	0	0	0	0	0	0	39.4	0.0000	0.0000	0.0000	0.0000;
	10785	31.08	0	0	0	1.0192	49.64	1	31.08	31.08	0	0	0	0	0	0	0	0	0	0	39.4	0.0000	0.0000	0.0000	0.0000;
	10791	58.2	22.43	22.43	-15.16	0.996	136.19	1	58.2	58.2	0	0	0	0	0	0	0	0	0	0	105.3	0.0000	0.0000	0.0000	0.0000;
	10796	0	0	21.23	-4.63	1.043	55.57	0	41.7	7.42	0	0	0	0	0	0	0	0	0	0	41.7	0.0000	0.0000	0.0000	0.0000;
	10797	41.7	10.49	21.23	-4.63	1.0445	62.55	1	41.7	8.83	0	0	0	0	0	0	0	0	0	0	41.7	0.0000	0.0000	0.0000	0.0000;
	10797	41.7	10.49	21.23	-4.63	1.0445	41.7	1	41.7	16.64	0	0	0	0	0	0	0	0	0	0	41.7	0.0000	0.0000	0.0000	0.0000;
	10798	41.7	-4.63	21.23	-4.63	1.0269	41.7	1	41.7	13.81	0	0	0	0	0	0	0	0	0	0	41.7	0.0000	0.0000	0.0000	0.0000;
	10800	82.34	-14.08	20.83	-14.08	1.04	129.15	1	82.34	82.34	0	0	0	0	0	0	0	0	0	0	97.8	0.0000	0.0000	0.0000	0.0000;
	10802	10.22	4.61	4.61	-0.59	1.0444	14.15	1	10.22	10.22	0	0	0	0	0	0	0	0	0	0	12	0.0000	0.0000	0.0000	0.0000;
	10803	12	4.61	4.61	-0.59	1.0444	12.12	1	12	12	0	0	0	0	0	0	0	0	0	0	12	0.0000	0.0000	0.0000	0.0000;
	10806	34.74	-2.23	17.51	-2.23	1.0235	52.42	1	34.74	34.74	0	0	0	0	0	0	0	0	0	0	45.6	0.0000	0.0000	0.0000	0.0000;
	10806	42.97	-2.23	17.51	-2.23	1.0235	61.48	1	42.97	42.97	0	0	0	0	0	0	0	0	0	0	45.6	0.0000	0.0000	0.0000	0.0000;
	10807	0	0	17.51	-2.23	1.0261	68.4	0	45.6	21.01	0	0	0	0	0	0	0	0	0	0	45.6	0.0000	0.0000	0.0000	0.0000;
	10807	30.26	-2.23	17.51	-2.23	1.0261	51.24	1	30.26	30.26	0	0	0	0	0	0	0	0	0	0	45.6	0.0000	0.0000	0.0000	0.0000;
	10811	1200	297.06	441.6	-98.4	1.0653	1400.38	1	1200	469.13	0	0	0	0	0	0	0	0	0	0	1200	0.0000	0.0000	0.0000	0.0000;
	10813	56.32	-3.28	25.73	-3.28	1.0153	74.5	1	56.32	56.32	0	0	0	0	0	0	0	0	0	0	67	0.0000	0.0000	0.0000	0.0000;
	10813	0	0	25.73	-3.28	1.0153	91.7	0	67	30.37	0	0	0	0	0	0	0	0	0	0	67	0.0000	0.0000	0.0000	0.0000;
	10817	50.7	0	0	0	1.04	68.96	1	50.7	50.7	0	0	0	0	0	0	0	0	0	0	50.7	0.0000	0.0000	0.0000	0.0000;
	10818	0	0	0	0	1.04	7.2	0	7.2	2.33	0	0	0	0	0	0	0	0	0	0	7.2	0.0000	0.0000	0.0000	0.0000;
	10821	0	0	32.21	-21.77	1.0423	208.02	0	151.2	63.85	0	0	0	0	0	0	0	0	0	0	151.2	0.0000	0.0000	0.0000	0.0000;
	10829	75.24	-6.62	51.84	-6.62	1.0232	168.3	1	75.24	75.24	0	0	0	0	0	0	0	0	0	0	135	0.0000	0.0000	0.0000	0.0000;
	10830	135	-6.62	51.84	-6.62	1.0235	159.7	1	135	135	0	0	0	0	0	0	0	0	0	0	135	0.0000	0.0000	0.0000	0.0000;
	10831	106.15	-6.62	51.84	-6.62	1.0233	152.07	1	106.15	106.15	0	0	0	0	0	0	0	0	0	0	135	0.0000	0.0000	0.0000	0.0000;
	10832	135	-6.62	51.84	-6.62	1.0236	143.54	1	135	135	0	0	0	0	0	0	0	0	0	0	135	0.0000	0.0000	0.0000	0.0000;
	10833	88.14	-6.62	51.84	-6.62	1.0234	177.11	1	88.14	88.14	0	0	0	0	0	0	0	0	0	0	135	0.0000	0.0000	0.0000	0.0000;
	10834	75.59	-6.62	51.84	-6.62	1.0234	175.15	1	75.59	75.59	0	0	0	0	0	0	0	0	0	0	135	0.0000	0.0000	0.0000	0.0000;
	10836	88.9	-9.87	45.25	-9.87	1.0221	116.35	1	88.9	20.57	0	0	0	0	0	0	0	0	0	0	88.9	0.0000	0.0000	0.0000	0.0000;
	10836	88.9	-9.87	45.25	-9.87	1.0221	90.43	1	88.9	14.92	0	0	0	0	0	0	0	0	0	0	88.9	0.0000	0.0000	0.0000	0.0000;
	10838	45.58	0	0	0	1.04	91.58	1	45.58	45.58	0	0	0	0	0	0	0	0	0	0	64	0.0000	0.0000	0.0000	0.0000;
	10842	10.5	4.92	4.92	-0.63	1.038	12.8	1	10.5	10.5	0	0	0	0	0	0	0	0	0	0	12.8	0.0000	0.0000	0.0000	0.0000;
	10842	8.22	4.92	4.92	-0.63	1.038	16.02	1	8.22	8.22	0	0	0	0	0	0	0	0	0	0	12.8	0.0000	0.0000	0.0000	0.0000;
	10843	11.05	-0.63	4.92	-0.63	1.0182	13.06	1	11.05	11.05	0	0	0	0	0	0	0	0	0	0	12.8	0.0000	0.0000	0.0000	0.0000;
	10843	0	0	4.92	-0.63	1.0182	14.28	0	12.8	3.56	0	0	0	0	0	0	0	0	0	0	12.8	0.0000	0.0000	0.0000	0.0000;
	10843	8.89	-0.63	4.92	-0.63	1.0182	12.8	1	8.89	8.89	0	0	0	0	0	0	0	0	0	0	12.8	0.0000	0.0000	0.0000	0.0000;
	10847	100.5	-4.92	38.59	-4.92	1.0368	118.86	1	100.5	100.5	0	0	0	0	0	0	0	0	0	0	100.5	0.0000	0.0000	0.0000	0.0000;
	10848	78.52	-4.92	38.59	-4.92	1.0368	140.04	1	78.52	78.52	0	0	0	0	0	0	0	0	0	0	100.5	0.0000	0.0000	0.0000	0.0000;
	10849	83.39	-4.92	38.59	-4.92	1.0368	128.45	1	83.39	83.39	0	0	0	0	0	0	0	0	0	0	100.5	0.0000	0.0000	0.0000	0.0000;
	10850	87.3	-4.92	38.59	-4.92	1.0366	120.81	1	87.3	87.3	0	0	0	0	0	0	0	0	0	0	100.5	0.0000	0.0000	0.0000	0.0000;
	10851	80.36	-4.92	38.59	-4.92	1.0368	108.12	1	80.36	80.36	0	0	0	0	0	0	0	0	0	0	100.5	0.0000	0.0000	0.0000	0.0000;
	10852	99.06	-4.92	38.59	-4.92	1.0368	100.5	1	99.06	99.06	0	0	0	0	0	0	0	0	0	0	100.5	0.0000	0.0000	0.0000	0.0000;
	10853	0	0	3.84	-0.49	1.0373	13.29	0	10	3.43	0	0	0	0	0	0	0	0	0	0	10	0.0000	0.0000	0.0000	0.0000;
	10859	0	0	340.13	-89.05	1.0395	844.8	0	729.9	357.25	0	0	0	0	0	0	0	0	0	0	729.9	0.0000	0.0000	0.0000	0.0000;
	10860	312.2	-89.05	340.13	-89.05	1.0341	887.05	1	729.9	312.19	0	0	0	0	0	0	0	0	0	0	729.9	0.0000	0.0000	0.0000	0.0000;
	10864	103.61	57.6	57.6	-7.35	1.0059	187.87	1	103.61	103.61	0	0	0	0	0	0	0	0	0	0	150	0.0000	0.0000	0.0000	0.0000;
	10865	110.96	57.6	57.6	-7.35	1.0062	209	1	110.96	110.96	0	0	0	0	0	0	0	0	0	0	150	0.0000	0.0000	0.0000	0.0000;
	10867	11.12	-0.74	5.76	-0.74	0.9782	15.21	1	11.12	11.12	0	0	0	0	0	0	0	0	0	0	15	0.0000	0.0000	0.0000	0.0000;
	10867	11.39	-0.74	5.76	-0.74	0.9782	20.37	1	11.39	11.39	0	0	0	0	0	0	0	0	0	0	15	0.0000	0.0000	0.0000	0.0000;
	10869	0	0	3.84	-0.49	1.0067	10	0	10	3.11	0	0	0	0	0	0	0	0	0	0	10	0.0000	0.0000	0.0000	0.0000;
	10869	10	3.84	3.84	-0.49	1.0067	11.12	1	10	10	0	0	0	0	0	0	0	0	0	0	10	0.0000	0.0000	0.0000	0.0000;
	10872	61.8	31.46	31.46	-6.86	1.023	90.38	1	61.8	28.09	0	0	0	0	0	0	0	0	0	0	61.8	0.0000	0.0000	0.0000	0.0000;
	10873	21.91	-1.45	11.37	-1.45	1.0192	33.07	1	21.91	21.91	0	0	0	0	0	0	0	0	0	0	29.6	0.0000	0.0000	0.0000	0.0000;
	10873	0	0	11.37	-1.45	1.0192	38.51	0	29.6	4.59	0	0	0	0	0	0	0	0	0	0	29.6	0.0000	0.0000	0.0000	0.0000;
	10879	70.43	-6.62	51.84	-6.62	1.0365	149.8	1	70.43	70.43	0	0	0	0	0	0	0	0	0	0	135	0.0000	0.0000	0.0000	0.0000;
	10880	109.22	-6.62	51.84	-6.62	1.0366	177	1	109.22	109.22	0	0	0	0	0	0	0	0	0	0	135	0.0000	0.0000	0.0000	0.0000;
	10881	73.16	-6.62	51.84	-6.62	1.0364	178	1	73.16	73.16	0	0	0	0	0	0	0	0	0	0	135	0.0000	0.0000	0.0000	0.0000;
	10882	0	0	51.84	-6.62	1.0369	183.66	0	135	26.85	0	0	0	0	0	0	0	0	0	0	135	0.0000	0.0000	0.0000	0.0000;
	10883	0	0	51.84	-6.62	1.0369	146.95	0	135	57.54	0	0	0	0	0	0	0	0	0	0	135	0.0000	0.0000	0.0000	0.0000;
	10884	118.13	-6.62	51.84	-6.62	1.0364	153.95	1	118.13	118.13	0	0	0	0	0	0	0	0	0	0	135	0.0000	0.0000	0.0000	0.0000;
	10889	87.8	42.31	44.69	-9.75	1.0385	110.05	1	87.8	43.63	0	0	0	0	0	0	0	0	0	0	87.8	0.0000	0.0000	0.0000	0.0000;
	10890	0	0	19.19	-4.18	1.0327	38.42	0	37.7	15.1	0	0	0	0	0	0	0	0	0	0	37.7	0.0000	0.0000	0.0000	0.0000;
	10895	94	-10.43	47.85	-10.43	1.0246	115.42	1	94	38.95	0	0	0	0	0	0	0	0	0	0	94	0.0000	0.0000	0.0000	0.0000;
	10896	94	-10.43	47.85	-10.43	1.0245	108.98	1	94	11.61	0	0	0	0	0	0	0	0	0	0	94	0.0000	0.0000	0.0000	0.0000;
	10897	94	-10.43	47.85	-10.43	1.0249	118.83	1	94	28.67	0	0	0	0	0	0	0	0	0	0	94	0.0000	0.0000	0.0000	0.0000;
	10898	94	-10.43	47.85	-10.43	1.0248	138.07	1	94	39.72	0	0	0	0	0	0	0	0	0	0	94	0.0000	0.0000	0.0000	0.0000;
	10901	36.21	-2.25	17.66	-2.25	1.0381	61.88	1	36.21	36.21	0	0	0	0	0	0	0	0	0	0	46	0.0000	0.0000	0.0000	0.0000;
	10902	0	0	17.66	-2.25	1.0396	46.65	0	46	10.13	0	0	0	0	0	0	0	0	0	0	46	0.0000	0.0000	0.0000	0.0000;
	10904	37.13	-3.57	10.65	-7.2	1.0488	64.29	1	37.13	37.13	0	0	0	0	0	0	0	0	0	0	50	0.0000	0.0000	0.0000	0.0000;
	10908	115.41	-8.37	65.61	-8.37	1.0367	202.81	1	115.41	115.41	0	0	0	0	0	0	0	0	0	0	170.8667	0.0000	0.0000	0.0000	0.0000;
	10909	0	0	65.61	-8.37	1.0438	171.05	0	170.87	37.23	0	0	0	0	0	0	0	0	0	0	170.8667	0.0000	0.0000	0.0000	0.0000;
	10910	99.62	-8.37	65.61	-8.37	1.0305	185.54	1	99.62	99.62	0	0	0	0	0	0	0	0	0	0	170.8667	0.0000	0.0000	0.0000	0.0000;
	10911	0	0	65.61	-8.37	1.0438	205	0	170.87	51.88	0	0	0	0	0	0	0	0	0	0	170.8667	0.0000	0.0000	0.0000	0.0000;
	10912	116.3	-8.37	65.61	-8.37	1.0304	246.02	1	116.3	116.3	0	0	0	0	0	0	0	0	0	0	170.87	0.0000	0.0000	0.0000	0.0000;
	10913	0	0	65.61	-8.37	1.0438	188.36	0	170.87	17.56	0	0	0	0	0	0	0	0	0	0	170.8667	0.0000	0.0000	0.0000	0.0000;
	10914	7.23	-0.46	3.61	-0.46	1.0308	9.4	1	7.23	7.23	0	0	0	0	0	0	0	0	0	0	9.4	0.0000	0.0000	0.0000	0.0000;
	10919	112.5	-5.51	43.2	-5.51	1.0321	148.42	1	112.5	112.5	0	0	0	0	0	0	0	0	0	0	112.5	0.0000	0.0000	0.0000	0.0000;
	10920	0	0	43.2	-5.51	1.0264	112.95	0	112.5	49.16	0	0	0	0	0	0	0	0	0	0	112.5	0.0000	0.0000	0.0000	0.0000;
	10921	93.79	-5.51	43.2	-5.51	1.0323	131.63	1	93.79	93.79	0	0	0	0	0	0	0	0	0	0	112.5	0.0000	0.0000	0.0000	0.0000;
	10922	0	0	43.2	-5.51	1.0264	153.59	0	112.5	42.5	0	0	0	0	0	0	0	0	0	0	112.5	0.0000	0.0000	0.0000	0.0000;
	10923	84.6	43.06	43.06	-9.39	1.044	107.98	1	84.6	19.89	0	0	0	0	0	0	0	0	0	0	84.6	0.0000	0.0000	0.0000	0.0000;
	10923	84.6	43.06	43.06	-9.39	1.044	85.56	1	84.6	35	0	0	0	0	0	0	0	0	0	0	84.6	0.0000	0.0000	0.0000	0.0000;
	10925	16.8	-0.82	6.45	-0.82	1.0246	16.87	1	16.8	16.8	0	0	0	0	0	0	0	0	0	0	16.8	0.0000	0.0000	0.0000	0.0000;
	10925	6.52	-0.37	2.88	-0.37	1.0246	8.37	1	6.52	6.52	0	0	0	0	0	0	0	0	0	0	7.5	0.0000	0.0000	0.0000	0.0000;
	10930	84.17	58.25	118.43	-25.83	1.0619	310.59	1	232.67	84.16	0	0	0	0	0	0	0	0	0	0	232.6667	0.0000	0.0000	0.0000	0.0000;
	10931	232.67	58.25	118.43	-25.83	1.0517	290.05	1	232.67	37.97	0	0	0	0	0	0	0	0	0	0	232.6667	0.0000	0.0000	0.0000	0.0000;
	10932	232.67	58.25	118.43	-25.83	1.059	261.17	1	232.67	90.77	0	0	0	0	0	0	0	0	0	0	232.6667	0.0000	0.0000	0.0000	0.0000;
	10933	50	-7.2	10.65	-7.2	1.0192	50	1	50	50	0	0	0	0	0	0	0	0	0	0	50	0.0000	0.0000	0.0000	0.0000;
	10934	36	-1.76	13.82	-1.76	1.0172	39.66	1	36	36	0	0	0	0	0	0	0	0	0	0	36	0.0000	0.0000	0.0000	0.0000;
	10934	36	-1.76	13.82	-1.76	1.0172	53.42	1	36	36	0	0	0	0	0	0	0	0	0	0	36	0.0000	0.0000	0.0000	0.0000;
	10938	14.84	0	0	0	1.0375	20.22	1	14.84	14.84	0	0	0	0	0	0	0	0	0	0	18	0.0000	0.0000	0.0000	0.0000;
	10939	7.5	0	0	0	1.0363	8.1	1	7.5	7.5	0	0	0	0	0	0	0	0	0	0	7.5	0.0000	0.0000	0.0000	0.0000;
	10940	7.5	0	0	0	1.035	8.27	1	7.5	7.5	0	0	0	0	0	0	0	0	0	0	7.5	0.0000	0.0000	0.0000	0.0000;
	10944	123.26	-6.62	51.84	-6.62	1.0381	147.93	1	123.26	123.26	0	0	0	0	0	0	0	0	0	0	135	0.0000	0.0000	0.0000	0.0000;
	10945	118.78	-6.62	51.84	-6.62	1.038	194.09	1	118.78	118.78	0	0	0	0	0	0	0	0	0	0	135	0.0000	0.0000	0.0000	0.0000;
	10946	135	-6.62	51.84	-6.62	1.0384	154.67	1	135	135	0	0	0	0	0	0	0	0	0	0	135	0.0000	0.0000	0.0000	0.0000;
	10947	109.12	-6.62	51.84	-6.62	1.0382	200.23	1	109.12	109.12	0	0	0	0	0	0	0	0	0	0	135	0.0000	0.0000	0.0000	0.0000;
	10948	0	0	51.84	-6.62	1.0388	185.19	0	135	44.9	0	0	0	0	0	0	0	0	0	0	135	0.0000	0.0000	0.0000	0.0000;
	10949	90.42	-6.62	51.84	-6.62	1.0383	172.19	1	90.42	90.42	0	0	0	0	0	0	0	0	0	0	135	0.0000	0.0000	0.0000	0.0000;
	10951	0	0	7.43	-0.95	1.0312	19.99	0	19.35	4.75	0	0	0	0	0	0	0	0	0	0	19.35	0.0000	0.0000	0.0000	0.0000;
	10951	0	0	7.43	-0.95	1.0312	21.18	0	19.35	8.38	0	0	0	0	0	0	0	0	0	0	19.35	0.0000	0.0000	0.0000	0.0000;
	10955	32.11	-1.67	13.06	-1.67	1.0203	34.02	1	32.11	32.11	0	0	0	0	0	0	0	0	0	0	34	0.0000	0.0000	0.0000	0.0000;
	10955	17.04	-1.67	13.06	-1.67	1.0203	41.9	1	17.04	17.04	0	0	0	0	0	0	0	0	0	0	34	0.0000	0.0000	0.0000	0.0000;
	10956	0	0	13.06	-1.67	1.0209	44.38	0	34	4.71	0	0	0	0	0	0	0	0	0	0	34	0.0000	0.0000	0.0000	0.0000;
	10956	0	0	13.06	-1.67	1.0209	45.23	0	34	16.83	0	0	0	0	0	0	0	0	0	0	34	0.0000	0.0000	0.0000	0.0000;
	10959	221.29	55.85	55.85	-37.76	1.0089	336.76	1	221.29	221.29	0	0	0	0	0	0	0	0	0	0	262.2	0.0000	0.0000	0.0000	0.0000;
	10965	0	0	73	-49.35	1.0351	382.51	0	342.7	148.96	0	0	0	0	0	0	0	0	0	0	342.7	0.0000	0.0000	0.0000	0.0000;
	10966	0	0	2.65	-0.34	1.0221	6.96	0	6.9	2.85	0	0	0	0	0	0	0	0	0	0	6.9	0.0000	0.0000	0.0000	0.0000;
	10966	5.28	-0.34	2.65	-0.34	1.0221	9.31	1	5.28	5.28	0	0	0	0	0	0	0	0	0	0	6.9	0.0000	0.0000	0.0000	0.0000;
	10966	20.12	-1.35	10.56	-1.35	1.0221	36	1	20.12	20.12	0	0	0	0	0	0	0	0	0	0	27.5	0.0000	0.0000	0.0000	0.0000;
	10969	0	0	13.23	-2.89	1.0283	32.28	0	26	10.93	0	0	0	0	0	0	0	0	0	0	26	0.0000	0.0000	0.0000	0.0000;
	10972	13.16	-0.86	6.72	-0.86	1.0106	18.98	1	13.16	13.16	0	0	0	0	0	0	0	0	0	0	17.5	0.0000	0.0000	0.0000	0.0000;
	10972	17.5	-0.86	6.72	-0.86	1.0106	21.37	1	17.5	17.5	0	0	0	0	0	0	0	0	0	0	17.5	0.0000	0.0000	0.0000	0.0000;
	10973	0	0	6.72	-0.86	1.0123	21.11	0	17.5	8.42	0	0	0	0	0	0	0	0	0	0	17.5	0.0000	0.0000	0.0000	0.0000;
	10973	17.5	-0.86	6.72	-0.86	1.0123	19.51	1	17.5	17.5	0	0	0	0	0	0	0	0	0	0	17.5	0.0000	0.0000	0.0000	0.0000;
	10978	95.9	12.11	20.43	-13.81	1.0422	103.8	1	95.9	95.9	0	0	0	0	0	0	0	0	0	0	95.9	0.0000	0.0000	0.0000	0.0000;
	10981	97.59	20.36	29.03	-19.63	1.0485	168.9	1	97.59	97.59	0	0	0	0	0	0	0	0	0	0	136.3	0.0000	0.0000	0.0000	0.0000;
	10982	92.02	20.36	29.03	-19.63	1.0469	154.45	1	92.02	92.02	0	0	0	0	0	0	0	0	0	0	136.3	0.0000	0.0000	0.0000	0.0000;
	10985	199	-28.66	42.39	-28.66	1.038	199.13	1	199	199	0	0	0	0	0	0	0	0	0	0	199	0.0000	0.0000	0.0000	0.0000;
	10989	216.67	-24.05	110.28	-24.05	1.0371	295.91	1	216.67	63.89	0	0	0	0	0	0	0	0	0	0	216.67	0.0000	0.0000	0.0000	0.0000;
	10990	216.67	-24.05	110.28	-24.05	1.0373	242.35	1	216.67	56.96	0	0	0	0	0	0	0	0	0	0	216.6667	0.0000	0.0000	0.0000	0.0000;
	10991	216.67	-24.05	110.28	-24.05	1.0377	322.3	1	216.67	22.69	0	0	0	0	0	0	0	0	0	0	216.67	0.0000	0.0000	0.0000	0.0000;
	10993	0	0	7.92	-1.01	1.0436	24.82	0	20.62	9.67	0	0	0	0	0	0	0	0	0	0	20.625	0.0000	0.0000	0.0000	0.0000;
	10993	0	0	7.92	-1.01	1.0436	21.05	0	20.62	7.69	0	0	0	0	0	0	0	0	0	0	20.63	0.0000	0.0000	0.0000	0.0000;
	10994	0	0	7.92	-1.01	1.0436	30.93	0	20.62	4.16	0	0	0	0	0	0	0	0	0	0	20.63	0.0000	0.0000	0.0000	0.0000;
	10995	20.62	-1.01	7.92	-1.01	1.0417	25.07	1	20.62	20.62	0	0	0	0	0	0	0	0	0	0	20.625	0.0000	0.0000	0.0000	0.0000;
	10998	16.51	-1.22	9.6	-1.22	1.0259	34.25	1	16.51	16.51	0	0	0	0	0	0	0	0	0	0	25	0.0000	0.0000	0.0000	0.0000;
	10998	25	-1.22	9.6	-1.22	1.0259	28.91	1	25	25	0	0	0	0	0	0	0	0	0	0	25	0.0000	0.0000	0.0000	0.0000;
	11005	142.15	72.35	72.35	-15.78	1.0258	171.01	1	142.15	44.8	0	0	0	0	0	0	0	0	0	0	142.15	0.0000	0.0000	0.0000	0.0000;
	11006	142.15	72.35	72.35	-15.78	1.0271	185.88	1	142.15	15.96	0	0	0	0	0	0	0	0	0	0	142.15	0.0000	0.0000	0.0000	0.0000;
	11008	21.6	-1.06	8.29	-1.06	0.9755	27.1	1	21.6	21.6	0	0	0	0	0	0	0	0	0	0	21.6	0.0000	0.0000	0.0000	0.0000;
	11009	16.3	-1.06	8.29	-1.06	0.997	22.46	1	16.3	16.3	0	0	0	0	0	0	0	0	0	0	21.6	0.0000	0.0000	0.0000	0.0000;
	11009	5.97	-0.63	4.92	-0.63	0.997	19.2	1	5.97	5.97	0	0	0	0	0	0	0	0	0	0	12.8	0.0000	0.0000	0.0000	0.0000;
	11014	812.69	322.06	415.68	-53.04	1.0694	1169.43	1	812.69	812.69	0	0	0	0	0	0	0	0	0	0	1082.5	0.0000	0.0000	0.0000	0.0000;
	11015	0	0	415.68	-53.04	1.041	1277.21	0	1082.5	277.82	0	0	0	0	0	0	0	0	0	0	1082.5	0.0000	0.0000	0.0000	0.0000;
	11016	1082.5	322.06	415.68	-53.04	1.0633	1357.65	1	1082.5	1082.5	0	0	0	0	0	0	0	0	0	0	1082.5	0.0000	0.0000	0.0000	0.0000;
...
];

%% branch data
%	fbus	tbus	r	x	b	rateA	rateB	rateC	ratio	angle	status	angmin	angmax	Pf	Qf	Pt	Qt	mu_Sf	mu_St	mu_angmin	mu_angmax
mpc.branch = [
	10002	10001	0.057474	0.297874	0.04557	185.33	0	0	0	0	1	0	0	16.6800	-3.3200	-16.5300	-0.5600	0.0000	0.0000	0.0000	0.0000;
	10011	10001	0.027895	0.200986	0.06271	167.88	0	0	0	0	1	0	0	-6.8800	-4.3200	6.8900	-1.9800	0.0000	0.0000	0.0000	0.0000;
	10014	10002	0.028286	0.132954	0.07205	207.43	0	0	0	0	1	0	0	32.9600	-3.4300	-32.6600	-2.7100	0.0000	0.0000	0.0000	0.0000;
	10004	10003	0.012099	0.073288	0.01171	170.67	0	0	0	0	1	0	0	3.0200	0.3000	-3.0100	-1.5400	0.0000	0.0000	0.0000	0.0000;
	10003	10010	0.012423	0.079127	0.01766	201.54	0	0	0	0	1	0	0	20.0200	7.0400	-19.9700	-8.5600	0.0000	0.0000	0.0000	0.0000;
	10937	10003	0.009516	0.050189	0.02744	211.8	0	0	0	0	1	0	0	31.4900	4.1300	-31.4000	-6.5900	0.0000	0.0000	0.0000	0.0000;
	10004	10005	0.000201	0.001173	0	0	0	0	0	0	1	0	0	10.4500	2.7500	-10.4500	-2.7500	0.0000	0.0000	0.0000	0.0000;
	10004	10937	0.019482	0.100643	0.02121	195.1	0	0	0	0	1	0	0	-13.4600	-3.0500	13.5000	0.9500	0.0000	0.0000	0.0000	0.0000;
	10006	10007	0.000272	0.001137	0	0	0	0	0	0	1	0	0	-13.4400	-1.2800	13.4400	1.2800	0.0000	0.0000	0.0000	0.0000;
	10008	10007	0.00871	0.065557	0.0156	212.34	0	0	0	0	1	0	0	29.1100	-6.4900	-29.0400	5.4100	0.0000	0.0000	0.0000	0.0000;
	10007	13019	0.005848	0.038664	0.02062	218.55	0	0	0	0	1	0	0	-37.1800	11.7600	37.2700	-13.3500	0.0000	0.0000	0.0000	0.0000;
	10007	13028	0.018994	0.103855	0.1879	231.63	0	0	0	0	1	0	0	52.7800	-18.4500	-52.2600	1.4900	0.0000	0.0000	0.0000	0.0000;
	10008	10009	0.000236	0.001046	0	0	0	0	0	0	1	0	0	16.8200	2.6000	-16.8200	-2.5900	0.0000	0.0000	0.0000	0.0000;
	10016	10008	0.013033	0.083799	0.0301	229.92	0	0	0	0	1	0	0	53.1900	-5.8900	-52.8400	4.9900	0.0000	0.0000	0.0000	0.0000;
	13019	10008	0.01355	0.065214	0.032	184.78	0	0	0	0	1	0	0	-6.9000	-2.2300	6.9100	-1.0900	0.0000	0.0000	0.0000	0.0000;
	10014	10010	0.007781	0.030841	0.02241	197.37	0	0	0	0	1	0	0	13.5400	4.3000	-13.5200	-6.5900	0.0000	0.0000	0.0000	0.0000;
	10011	10020	0.022817	0.11103	0.02458	214.06	0	0	0	0	1	0	0	-25.1500	-3.8500	25.2900	2.0400	0.0000	0.0000	0.0000	0.0000;
	10013	10012	0.000261	0.019344	0	473.63	0	0	1	0	1	0	0	-198.4200	-32.2600	198.5200	39.6600	0.0000	0.0000	0.0000	0.0000;
	10012	10023	0.001396	0.016565	0.31452	1105.1	0	0	0	0	1	0	0	109.7600	-6.2000	-109.6100	-25.5400	0.0000	0.0000	0.0000	0.0000;
	10012	10987	0.000883	0.009393	0.17078	1237.08	0	0	0	0	1	0	0	-308.2900	-33.4500	309.0700	23.4300	0.0000	0.0000	0.0000	0.0000;
	10014	10013	0.002093	0.00845	0.00407	236.46	0	0	0	0	1	0	0	-71.5100	-12.6800	71.6100	12.6700	0.0000	0.0000	0.0000	0.0000;
	10013	10076	0.015367	0.101403	0.11511	239.71	0	0	0	0	1	0	0	69.0200	-10.4700	-68.3200	2.9300	0.0000	0.0000	0.0000	0.0000;
	10014	10015	0.00027	0.001089	0	0	0	0	0	0	1	0	0	25.0100	11.8100	-25.0100	-11.8000	0.0000	0.0000	0.0000	0.0000;
	10016	10017	0.00025	0.001152	0	0	0	0	0	0	1	0	0	25.9000	7.1700	-25.8900	-7.1600	0.0000	0.0000	0.0000	0.0000;
	10016	13463	0.008946	0.046857	0.19885	245.26	0	0	0	0	1	0	0	-79.0900	-1.2800	79.6300	-16.9300	0.0000	0.0000	0.0000	0.0000;
	10018	10032	0.002241	0.0146	0.03367	250.62	0	0	0	0	1	0	0	94.3100	-6.1900	-94.1200	3.8300	0.0000	0.0000	0.0000	0.0000;
	10018	10988	0.006284	0.038361	0.02021	263.59	0	0	0	0	1	0	0	-118.7700	-0.0000	119.6000	2.9100	0.0000	0.0000	0.0000	0.0000;
	10020	10019	0.000533	0.033552	0	445.05	0	0	0.975	0	1	0	0	-142.3400	17.1700	142.4400	-10.8200	0.0000	0.0000	0.0000	0.0000;
	10730	10019	0.002142	0.026863	0.58195	1150.4	0	0	0	0	1	0	0	142.8800	-67.6600	-142.4400	10.8200	0.0000	0.0000	0.0000	0.0000;
	10020	10029	0.005708	0.039706	0.02239	233.76	0	0	0	0	1	0	0	63.7000	9.3000	-63.4700	-10.0000	0.0000	0.0000	0.0000	0.0000;
	10021	13074	0.006464	0.035113	0.12496	251.36	0	0	0	0	1	0	0	90.4100	-8.4800	-89.9100	-1.9300	0.0000	0.0000	0.0000	0.0000;
	10021	13512	0.002495	0.018	0.01137	201.56	0	0	0	0	1	0	0	-16.9100	2.3400	16.9200	-3.4900	0.0000	0.0000	0.0000	0.0000;
	13690	10021	0.005193	0.037293	0.01323	247.31	0	0	0	0	1	0	0	82.8300	-3.0000	-82.4900	4.0100	0.0000	0.0000	0.0000	0.0000;
	10022	10024	0.001583	0.010843	0.00579	204.48	0	0	0	0	1	0	0	-18.2400	-30.6500	18.2500	30.1500	0.0000	0.0000	0.0000	0.0000;
	10022	10030	0.007083	0.036561	0.01221	210.69	0	0	0	0	1	0	0	-29.9500	14.7400	30.0300	-15.6700	0.0000	0.0000	0.0000	0.0000;
	10024	10023	0.000558	0.024885	0	465.77	0	0	1.03125	0	1	0	0	-176.1000	-74.0100	176.3000	82.8700	0.0000	0.0000	0.0000	0.0000;
	10730	10023	0.000587	0.00738	0.21892	1205.73	0	0	0	0	1	0	0	-303.9900	0.4900	304.5000	-17.3800	0.0000	0.0000	0.0000	0.0000;
	10987	10023	0.001084	0.012681	0.23685	1271.34	0	0	0	0	1	0	0	372.6000	30.9800	-371.1900	-39.9500	0.0000	0.0000	0.0000	0.0000;
	10024	10039	0.003249	0.013727	0.00413	261.21	0	0	0	0	1	0	0	113.8900	34.8900	-113.4700	-33.5500	0.0000	0.0000	0.0000	0.0000;
	10025	10858	0.006298	0.039083	0.03135	188.02	0	0	0	0	1	0	0	9.2100	-7.4400	-9.2000	4.1300	0.0000	0.0000	0.0000	0.0000;
	10025	10929	0.012125	0.068124	0.01755	219.05	0	0	0	0	1	0	0	-40.1000	-5.3200	40.2800	4.4700	0.0000	0.0000	0.0000	0.0000;
	10051	10026	0.004528	0.02582	0.01123	220.77	0	0	0	0	1	0	0	18.6600	3.9100	-18.6500	-4.9700	0.0000	0.0000	0.0000	0.0000;
	10027	10028	0.000249	0.001026	0	0	0	0	0	0	1	0	0	32.2300	12.7300	-32.2300	-12.7200	0.0000	0.0000	0.0000	0.0000;
	10027	10029	0.006288	0.036606	0.01108	209.69	0	0	0	0	1	0	0	-31.1800	-8.8900	31.2400	8.1500	0.0000	0.0000	0.0000	0.0000;
	10054	10027	0.005908	0.03552	0.03718	199	0	0	0	0	1	0	0	1.0500	0.0900	-1.0500	-3.8400	0.0000	0.0000	0.0000	0.0000;
	10030	10031	0.000244	0.001051	0	0	0	0	0	0	1	0	0	39.8100	7.2000	-39.8000	-7.1800	0.0000	0.0000	0.0000	0.0000;
	10030	10988	0.011232	0.05541	0.03885	237.68	0	0	0	0	1	0	0	-69.8300	8.4700	70.3500	-10.0900	0.0000	0.0000	0.0000	0.0000;
	10032	10040	0.005932	0.033216	0.0405	226.1	0	0	0	0	1	0	0	52.6200	-9.5000	-52.4600	6.0900	0.0000	0.0000	0.0000	0.0000;
	10036	10033	0.001438	0.006275	0.00353	216.72	0	0	0	0	1	0	0	43.5100	-18.5000	-43.4800	18.2700	0.0000	0.0000	0.0000	0.0000;
	10033	10045	0.010951	0.047533	0.03427	216.4	0	0	0	0	1	0	0	-16.8000	-10.5300	16.8400	7.1300	0.0000	0.0000	0.0000	0.0000;
	10033	11071	0.001422	0.007398	0.00283	237.01	0	0	0	0	1	0	0	-72.3300	5.9700	72.4000	-5.8800	0.0000	0.0000	0.0000	0.0000;
	10033	13147	0.007909	0.052892	0.05837	246.79	0	0	0	0	1	0	0	73.5600	-20.6700	-73.1300	17.5400	0.0000	0.0000	0.0000	0.0000;
	10034	10035	0.000201	0.001022	0	0	0	0	0	0	1	0	0	59.0600	42.7000	-59.0500	-42.6500	0.0000	0.0000	0.0000	0.0000;
	10034	10036	0.000248	0.001185	0	0	0	0	0	0	1	0	0	-59.0600	-42.7000	59.0700	42.7600	0.0000	0.0000	0.0000	0.0000;
	11071	10036	0.0005	0.002496	0.00233	254.33	0	0	0	0	1	0	0	102.6400	24.2900	-102.5800	-24.2600	0.0000	0.0000	0.0000	0.0000;
	10037	10041	0.003468	0.018993	0.08954	230.13	0	0	0	0	1	0	0	-70.3100	16.5800	70.4800	-25.1700	0.0000	0.0000	0.0000	0.0000;
	10037	10053	0.006057	0.029228	0.21482	255.03	0	0	0	0	1	0	0	101.8500	-6.7900	-101.2600	-13.1800	0.0000	0.0000	0.0000	0.0000;
	10929	10037	0.004393	0.017586	0.00677	255.57	0	0	0	0	1	0	0	90.1900	21.7800	-89.8400	-21.1100	0.0000	0.0000	0.0000	0.0000;
	10038	10039	0.000276	0.001086	0	0	0	0	0	0	1	0	0	-36.5900	-13.1700	36.5900	13.1800	0.0000	0.0000	0.0000	0.0000;
	10040	10039	0.002872	0.01782	0.01246	243.11	0	0	0	0	1	0	0	-76.7000	-20.6400	76.8700	20.3600	0.0000	0.0000	0.0000	0.0000;
	10040	10061	0.004531	0.021432	0.02901	245.08	0	0	0	0	1	0	0	85.6000	0.8600	-85.2800	-2.4500	0.0000	0.0000	0.0000	0.0000;
	10045	10041	0.005713	0.03731	0.01199	236.56	0	0	0	0	1	0	0	-42.1800	-20.0400	42.3000	19.5400	0.0000	0.0000	0.0000	0.0000;
	10041	10757	0.003754	0.019648	0.08439	270.97	0	0	0	0	1	0	0	-132.8600	-4.3000	133.4800	-1.4800	0.0000	0.0000	0.0000	0.0000;
	10112	10042	0.006696	0.033297	0.02397	241.87	0	0	0	0	1	0	0	-70.7400	-1.9800	71.0500	1.0200	0.0000	0.0000	0.0000	0.0000;
	10042	10858	0.001268	0.003825	0.00121	265.85	0	0	0	0	1	0	0	-130.3000	-12.3800	130.5000	12.8600	0.0000	0.0000	0.0000	0.0000;
	10043	10044	0.000235	0.001166	0	0	0	0	0	0	1	0	0	37.5500	1.7600	-37.5400	-1.7400	0.0000	0.0000	0.0000	0.0000;
	10065	10043	0.004192	0.027014	0.0131	234.78	0	0	0	0	1	0	0	-59.6900	1.4300	59.8400	-1.8700	0.0000	0.0000	0.0000	0.0000;
	10043	10731	0.008235	0.049341	0.02223	254.45	0	0	0	0	1	0	0	-97.3800	0.1100	98.1300	2.0300	0.0000	0.0000	0.0000	0.0000;
	10046	10047	0.000221	0.001009	0	0	0	0	0	0	1	0	0	45.7600	5.9600	-45.7600	-5.9400	0.0000	0.0000	0.0000	0.0000;
	10049	10046	0.001366	0.006447	0.0035	199.81	0	0	0	0	1	0	0	15.5100	5.4100	-15.5100	-5.7600	0.0000	0.0000	0.0000	0.0000;
	10046	10053	0.004165	0.027215	0.0075	230.09	0	0	0	0	1	0	0	-57.4500	-8.5200	57.5900	8.6100	0.0000	0.0000	0.0000	0.0000;
	10046	10060	0.003004	0.017196	0.00465	209.43	0	0	0	0	1	0	0	27.2000	8.3200	-27.1700	-8.6700	0.0000	0.0000	0.0000	0.0000;
	10048	10049	0.000233	0.001054	0	0	0	0	0	0	1	0	0	-45.7600	-10.2400	45.7600	10.2700	0.0000	0.0000	0.0000	0.0000;
	10048	10050	0.000219	0.001026	0	0	0	0	0	0	1	0	0	0.0000	0.0000	0.0000	0.0000	0.0000	0.0000	0.0000	0.0000;
	10049	10858	0.008744	0.048084	0.03521	236.41	0	0	0	0	1	0	0	-61.2800	-15.6800	61.6100	13.7600	0.0000	0.0000	0.0000	0.0000;
	10051	10052	0.000267	0.001152	0	0	0	0	0	0	1	0	0	17.5100	1.9400	-17.5100	-1.9400	0.0000	0.0000	0.0000	0.0000;
	10051	10106	0.011558	0.052554	0.06616	232.86	0	0	0	0	1	0	0	-36.1700	-5.8500	36.3200	-0.3100	0.0000	0.0000	0.0000	0.0000;
	10054	10087	0.009807	0.051866	0.06321	227.67	0	0	0	0	1	0	0	-44.3700	-16.2200	44.5800	10.8700	0.0000	0.0000	0.0000	0.0000;
	10055	10056	0.000299	0.001016	0	0	0	0	0	0	1	0	0	-17.5700	-5.1600	17.5700	5.1600	0.0000	0.0000	0.0000	0.0000;
	10071	10056	0.001756	0.013175	0.01312	213.54	0	0	0	0	1	0	0	-38.4200	-3.5600	38.4500	2.3600	0.0000	0.0000	0.0000	0.0000;
	10056	10111	0.005763	0.031111	0.07264	227.01	0	0	0	0	1	0	0	-56.0200	-7.5200	56.1900	0.7600	0.0000	0.0000	0.0000	0.0000;
	10058	10057	0.000543	0.025187	0	466.21	0	0	1	0	1	0	0	-173.3900	-27.8000	173.5500	35.2300	0.0000	0.0000	0.0000	0.0000;
	10057	10059	0.000237	0.001074	0	0	0	0	0	0	1	0	0	-173.5500	-35.2300	173.6200	35.5500	0.0000	0.0000	0.0000	0.0000;
	10060	10058	0.001632	0.010946	0.00846	201.84	0	0	0	0	1	0	0	-16.7600	-18.9500	16.7700	18.1300	0.0000	0.0000	0.0000	0.0000;
	10058	10072	0.001803	0.013354	0.00342	235.48	0	0	0	0	1	0	0	59.6300	9.0100	-59.5700	-8.9100	0.0000	0.0000	0.0000	0.0000;
	10058	10099	0.003268	0.021191	0.03671	230.02	0	0	0	0	1	0	0	53.0600	-7.4800	-52.9700	4.2300	0.0000	0.0000	0.0000	0.0000;
	10059	10462	0.001137	0.014419	0.70236	1228.28	0	0	0	0	1	0	0	251.5200	10.4900	-250.8200	-75.7400	0.0000	0.0000	0.0000	0.0000;
	10857	10059	0.000837	0.00946	0.19427	1358.91	0	0	0	0	1	0	0	426.5700	41.3900	-425.1400	-46.0400	0.0000	0.0000	0.0000	0.0000;
	10061	10133	0.002583	0.013741	0.01254	211.25	0	0	0	0	1	0	0	34.2100	6.9000	-34.1800	-8.0600	0.0000	0.0000	0.0000	0.0000;
	10062	10063	0.000252	0.001023	0	0	0	0	0	0	1	0	0	-36.2500	-9.3200	36.2500	9.3300	0.0000	0.0000	0.0000	0.0000;
	10062	10064	0.000263	0.001129	0	0	0	0	0	0	1	0	0	36.2500	9.3200	-36.2400	-9.3000	0.0000	0.0000	0.0000	0.0000;
	10065	10063	0.003065	0.018143	0.00658	196.02	0	0	0	0	1	0	0	13.4300	-8.2400	-13.4300	7.6000	0.0000	0.0000	0.0000	0.0000;
	10063	10149	0.003675	0.024161	0.01534	206.38	0	0	0	0	1	0	0	-22.8200	-16.9300	22.8500	15.5100	0.0000	0.0000	0.0000	0.0000;
	10065	10068	0.000841	0.025733	0	108.63	0	0	1	0	1	0	0	0.0000	0.0000	0.0000	0.0000	0.0000	0.0000	0.0000	0.0000;
	10066	10068	0.008435	0.258035	0	54.31	0	0	1	0	1	0	0	0.0000	0.0000	0.0000	0.0000	0.0000	0.0000	0.0000	0.0000;
	10067	10068	0.008435	0.258035	0	54.31	0	0	1	0	1	0	0	0.0000	0.0000	0.0000	0.0000	0.0000	0.0000	0.0000	0.0000;
	10069	10074	0.005928	0.033632	0.01174	203.82	0	0	0	0	1	0	0	17.3100	-8.1300	-17.2900	7.0400	0.0000	0.0000	0.0000	0.0000;
	10781	10069	0.002921	0.013747	0.0102	244.58	0	0	0	0	1	0	0	76.3400	6.0900	-76.1700	-6.3500	0.0000	0.0000	0.0000	0.0000;
	10070	10090	0.002734	0.018279	0.01645	221.92	0	0	0	0	1	0	0	41.8700	-5.8100	-41.8300	4.3900	0.0000	0.0000	0.0000	0.0000;
	10095	10070	0.003473	0.022438	0.00952	229.14	0	0	0	0	1	0	0	53.0400	-6.0400	-52.9400	5.6500	0.0000	0.0000	0.0000	0.0000;
	10112	10071	0.003379	0.016953	0.02423	236.16	0	0	0	0	1	0	0	59.5400	-0.7200	-59.4200	-1.2700	0.0000	0.0000	0.0000	0.0000;
	10071	10153	0.002966	0.015795	0.10033	232.27	0	0	0	0	1	0	0	59.4800	-5.5100	-59.3800	-4.5000	0.0000	0.0000	0.0000	0.0000;
	10072	10073	0.000299	0.001136	0	0	0	0	0	0	1	0	0	38.3800	20.2000	-38.3700	-20.1800	0.0000	0.0000	0.0000	0.0000;
	10072	10155	0.005629	0.029688	0.00699	205.7	0	0	0	0	1	0	0	21.1900	-11.3000	-21.1600	10.7300	0.0000	0.0000	0.0000	0.0000;
	10074	10075	0.000228	0.001097	0	0	0	0	0	0	1	0	0	14.7200	4.6500	-14.7200	-4.6400	0.0000	0.0000	0.0000	0.0000;
	13154	10074	0.007954	0.050685	0.01611	181.22	0	0	0	0	1	0	0	-2.5600	10.0800	2.5700	-11.6800	0.0000	0.0000	0.0000	0.0000;
	10076	10133	0.001323	0.006403	0.02926	218.87	0	0	0	0	1	0	0	40.3600	-5.9100	-40.3400	2.9400	0.0000	0.0000	0.0000	0.0000;
	10077	10092	0.002248	0.011411	0.00481	205.12	0	0	0	0	1	0	0	18.7200	6.3600	-18.7100	-6.8200	0.0000	0.0000	0.0000	0.0000;
	10077	10097	0.007262	0.029947	0.08604	216.78	0	0	0	0	1	0	0	-36.7500	3.4500	36.8400	-12.1200	0.0000	0.0000	0.0000	0.0000;
	10077	10137	0.005965	0.022809	0.03097	236.35	0	0	0	0	1	0	0	-59.0300	16.3000	59.2500	-18.7300	0.0000	0.0000	0.0000	0.0000;
	10077	13292	0.002442	0.014841	0.00883	229.46	0	0	0	0	1	0	0	48.6000	-34.0300	-48.5200	33.5900	0.0000	0.0000	0.0000	0.0000;
	10078	10081	0.001569	0.086936	0	616.81	0	0	1	0	1	0	0	198.7800	31.7500	-198.1900	1.3000	0.0000	0.0000	0.0000	0.0000;
	10078	10838	0.000957	0.012068	0.68187	1170.64	0	0	0	0	1	0	0	-198.7800	-31.7500	199.1400	-36.5700	0.0000	0.0000	0.0000	0.0000;
	10079	10081	-0.000917	-0.05082	0	466.81	0	0	1	0	1	0	0	-198.5400	-18.0200	198.1900	-1.3000	0.0000	0.0000	0.0000	0.0000;
	10079	10124	0.003042	0.017445	0.006	219.64	0	0	0	0	1	0	0	61.9900	9.8200	-61.8800	-9.7900	0.0000	0.0000	0.0000	0.0000;
	10140	10079	0.003	0.01806	0.03375	246.83	0	0	0	0	1	0	0	-80.5000	1.9100	80.6800	-4.3100	0.0000	0.0000	0.0000	0.0000;
	10080	10081	0.004152	0.230086	0	150	0	0	1	0	1	0	0	0.0000	0.0000	0.0000	0.0000	0.0000	0.0000	0.0000	0.0000;
	10082	10083	0.00028	0.001062	0	0	0	0	0	0	1	0	0	22.3300	8.7700	-22.3200	-8.7700	0.0000	0.0000	0.0000	0.0000;
	10113	10082	0.002023	0.016404	0.00465	182.93	0	0	0	0	1	0	0	12.0800	34.4300	-12.0600	-34.7100	0.0000	0.0000	0.0000	0.0000;
	10082	10121	0.00212	0.010107	0.00756	198.55	0	0	0	0	1	0	0	-10.2700	25.9300	10.2800	-26.6400	0.0000	0.0000	0.0000	0.0000;
	10084	10085	0.000226	0.001179	0	0	0	0	0	0	1	0	0	40.8600	5.8900	-40.8600	-5.8700	0.0000	0.0000	0.0000	0.0000;
	10084	10086	0.000207	0.001005	0	0	0	0	0	0	1	0	0	-40.8600	-5.8900	40.8600	5.9100	0.0000	0.0000	0.0000	0.0000;
	10086	10136	0.002643	0.017986	0.0103	216.7	0	0	0	0	1	0	0	-24.7200	-5.1000	24.7400	4.1100	0.0000	0.0000	0.0000	0.0000;
	10086	10216	0.010323	0.054805	0.04341	176.23	0	0	0	0	1	0	0	-16.1400	-0.8100	16.1700	-3.6700	0.0000	0.0000	0.0000	0.0000;
	10087	10121	0.007479	0.034982	0.01936	206.89	0	0	0	0	1	0	0	-43.6700	3.3200	43.8100	-4.6700	0.0000	0.0000	0.0000	0.0000;
	10203	10087	0.004732	0.032055	0.02713	214.83	0	0	0	0	1	0	0	11.8000	20.1400	-11.7800	-22.7700	0.0000	0.0000	0.0000	0.0000;
	10088	10089	0.000254	0.001123	0	0	0	0	0	0	1	0	0	33.2300	4.2000	-33.2300	-4.1900	0.0000	0.0000	0.0000	0.0000;
	10088	10128	0.001619	0.009116	0.0026	258.98	0	0	0	0	1	0	0	-148.1900	-35.5700	148.5400	37.2900	0.0000	0.0000	0.0000	0.0000;
	10088	10149	0.002097	0.01208	0.00604	223.8	0	0	0	0	1	0	0	36.4500	26.9400	-36.4100	-27.3400	0.0000	0.0000	0.0000	0.0000;
	10088	10227	0.005323	0.028924	0.0371	212.33	0	0	0	0	1	0	0	78.5000	4.4300	-78.1900	-6.6500	0.0000	0.0000	0.0000	0.0000;
	10090	10138	0.00331	0.017372	0.00479	189.9	0	0	0	0	1	0	0	2.4100	-4.3800	-2.4100	3.8800	0.0000	0.0000	0.0000	0.0000;
	10090	10149	0.007326	0.033046	0.01205	172.91	0	0	0	0	1	0	0	6.1800	-6.7600	-6.1800	5.5200	0.0000	0.0000	0.0000	0.0000;
	10137	10091	0.001153	0.00794	0.00434	248.05	0	0	0	0	1	0	0	-79.3200	13.5800	79.3900	-13.5500	0.0000	0.0000	0.0000	0.0000;
	10091	10176	0.00345	0.019599	0.02875	214.01	0	0	0	0	1	0	0	-29.4100	9.6300	29.4400	-12.4700	0.0000	0.0000	0.0000	0.0000;
	10091	10954	0.003029	0.013701	0.0419	249.45	0	0	0	0	1	0	0	-87.6500	-0.7800	87.8800	-2.6400	0.0000	0.0000	0.0000	0.0000;
	10092	10148	0.002731	0.0163	0.00861	229.01	0	0	0	0	1	0	0	45.6600	-13.4700	-45.6000	12.9100	0.0000	0.0000	0.0000	0.0000;
	10092	10173	0.005409	0.027737	0.02911	235.88	0	0	0	0	1	0	0	-58.4100	18.5800	58.6000	-20.6300	0.0000	0.0000	0.0000	0.0000;
	10093	13144	0.009419	0.072795	0.02979	218.69	0	0	0	0	1	0	0	36.7000	11.1000	-36.5600	-13.1400	0.0000	0.0000	0.0000	0.0000;
	10093	13147	0.003349	0.016415	0.06083	258.14	0	0	0	0	1	0	0	-94.2500	36.3400	94.5800	-41.0700	0.0000	0.0000	0.0000	0.0000;
	10093	13182	0.004096	0.021643	0.00554	234.34	0	0	0	0	1	0	0	57.0900	-18.4300	-56.9500	18.5800	0.0000	0.0000	0.0000	0.0000;
	10093	13204	0.00351	0.017155	0.01854	217.58	0	0	0	0	1	0	0	36.6100	-5.7200	-36.5700	4.0000	0.0000	0.0000	0.0000	0.0000;
	13292	10093	0.002609	0.012396	0.00539	233.12	0	0	0	0	1	0	0	67.7600	34.5600	-67.6200	-34.4500	0.0000	0.0000	0.0000	0.0000;
	10094	10095	0.000229	0.001065	0	0	0	0	0	0	1	0	0	-18.0200	-4.4300	18.0200	4.4400	0.0000	0.0000	0.0000	0.0000;
	10094	10096	0.000203	0.00105	0	0	0	0	0	0	1	0	0	18.0200	4.4300	-18.0200	-4.4300	0.0000	0.0000	0.0000	0.0000;
	10133	10095	0.002794	0.018339	0.0116	168.25	0	0	0	0	1	0	0	3.4700	-3.1700	-3.4700	1.9500	0.0000	0.0000	0.0000	0.0000;
	10095	11010	0.009226	0.049923	0.08677	241.84	0	0	0	0	1	0	0	-67.5900	-0.3500	67.9900	-6.6200	0.0000	0.0000	0.0000	0.0000;
	10097	10954	0.005361	0.031109	0.01035	240.32	0	0	0	0	1	0	0	-67.8600	6.8400	68.1000	-6.5600	0.0000	0.0000	0.0000	0.0000;
	10098	10099	0.000291	0.001137	0	0	0	0	0	0	1	0	0	-19.8400	-5.6000	19.8400	5.6100	0.0000	0.0000	0.0000	0.0000;
	10155	10099	0.001709	0.009509	0.01513	214.82	0	0	0	0	1	0	0	-33.1100	8.3600	33.1300	-9.8300	0.0000	0.0000	0.0000	0.0000;
	10100	10101	0.000217	0.001047	0	0	0	0	0	0	1	0	0	-33.8800	-8.2900	33.8800	8.3000	0.0000	0.0000	0.0000	0.0000;
	10100	10102	0.000274	0.001162	0	0	0	0	0	0	1	0	0	33.8800	8.2900	-33.8800	-8.2700	0.0000	0.0000	0.0000	0.0000;
	13260	10101	0.001371	0.006628	0.0094	194.26	0	0	0	0	1	0	0	-19.8200	9.2800	19.8300	-10.2500	0.0000	0.0000	0.0000	0.0000;
	13301	10101	0.001586	0.00633	0.00271	212.88	0	0	0	0	1	0	0	33.1800	4.7000	-33.1600	-4.9300	0.0000	0.0000	0.0000	0.0000;
	13314	10101	0.000606	0.003748	0.00188	194.85	0	0	0	0	1	0	0	20.5500	-7.0700	-20.5500	6.8800	0.0000	0.0000	0.0000	0.0000;
	10103	10104	0.000294	0.00104	0	0	0	0	0	0	1	0	0	57.7500	17.1400	-57.7400	-17.1000	0.0000	0.0000	0.0000	0.0000;
	10103	10105	0.000252	0.00112	0	0	0	0	0	0	1	0	0	-57.7500	-17.1400	57.7600	17.1800	0.0000	0.0000	0.0000	0.0000;
...